/*---------------------------------------------------------------------------*\
| =========                 |                                                 |
| \\      /  F ield         | OpenFOAM: The Open Source CFD Toolbox           |
|  \\    /   O peration     | Version:  v1706                                 |
|   \\  /    A nd           | Web:      www.OpenFOAM.com                      |
|    \\/     M anipulation  |                                                 |
\*---------------------------------------------------------------------------*/
Build  : v1706
Arch   : "LSB;label=32;scalar=64"
Exec   : pimpleFoam -parallel
Date   : Jun 30 2018
Time   : 09:54:15
Host   : "uss-enterprise"
PID    : 11203
Case   : /media/picard/data/jedrzej/OF/pack/56_wing6c_f3d_SA_segGAMG
nProcs : 26
Slaves : 
25
(
"uss-enterprise.11204"
"uss-enterprise.11205"
"uss-enterprise.11206"
"uss-enterprise.11207"
"uss-enterprise.11208"
"uss-enterprise.11209"
"uss-enterprise.11210"
"uss-enterprise.11211"
"uss-enterprise.11212"
"uss-enterprise.11213"
"uss-enterprise.11214"
"uss-enterprise.11215"
"uss-enterprise.11216"
"uss-enterprise.11217"
"uss-enterprise.11218"
"uss-enterprise.11219"
"uss-enterprise.11220"
"uss-enterprise.11221"
"uss-enterprise.11222"
"uss-enterprise.11223"
"uss-enterprise.11224"
"uss-enterprise.11225"
"uss-enterprise.11226"
"uss-enterprise.11227"
"uss-enterprise.11228"
)

Pstream initialized with:
    floatTransfer      : 0
    nProcsSimpleSum    : 0
    commsType          : nonBlocking
    polling iterations : 0
sigFpe : Enabling floating point exception trapping (FOAM_SIGFPE).
fileModificationChecking : Monitoring run-time modified files using timeStampMaster (fileModificationSkew 10)
allowSystemOperations : Allowing user-supplied system call operations

// * * * * * * * * * * * * * * * * * * * * * * * * * * * * * * * * * * * * * //
Create time

Create mesh for time = 4000


PIMPLE: max iterations = 30
    field U	: relTol 0.01, tolerance 1e-05
    field p	: relTol 0.01, tolerance 1e-05

Reading field p

Reading field U

Reading/calculating face flux field phi

AMI: Creating addressing and weights between 44738 source faces and 74816 target faces
AMI: Patch source sum(weights) min/max/average = 0.989893, 1.09974, 1.00004
AMI: Patch target sum(weights) min/max/average = 0.923728, 1.16499, 1.0001
Selecting incompressible transport model Newtonian
Selecting turbulence model type RAS
Selecting RAS turbulence model SpalartAllmaras
Selecting patchDistMethod meshWave
RAS
{
    RASModel        SpalartAllmaras;
    turbulence      on;
    printCoeffs     on;
    sigmaNut        0.66666;
    kappa           0.41;
    Cb1             0.1355;
    Cb2             0.622;
    Cw2             0.3;
    Cw3             2;
    Cv1             7.1;
    Cs              0.3;
}

No MRF models present

No finite volume options present


Starting time loop

forces forceCoeffs1:
    Not including porosity effects
    Fields will be written

forceCoeffs forceCoeffs1:
    Not including porosity effects
    Fields will be written

Courant Number mean: 0.051068 max: 543.125
Time = 4000

PIMPLE: iteration 1
GAMG:  Solving for Ux, Initial residual = 2.02713e-06, Final residual = 1.64546e-10, No Iterations 1
GAMG:  Solving for Uy, Initial residual = 9.53757e-05, Final residual = 9.80748e-09, No Iterations 1
GAMG:  Solving for Uz, Initial residual = 2.48534e-05, Final residual = 2.06957e-09, No Iterations 1
GAMG:  Solving for p, Initial residual = 0.493597, Final residual = 0.00257332, No Iterations 2
GAMG:  Solving for p, Initial residual = 0.0302529, Final residual = 0.000182403, No Iterations 4
GAMG:  Solving for p, Initial residual = 0.00731989, Final residual = 6.84628e-05, No Iterations 7
GAMG:  Solving for p, Initial residual = 0.00225242, Final residual = 2.24936e-05, No Iterations 31
GAMG:  Solving for p, Initial residual = 0.00114024, Final residual = 1.12757e-05, No Iterations 45
GAMG:  Solving for p, Initial residual = 0.000778541, Final residual = 7.71441e-06, No Iterations 36
GAMG:  Solving for p, Initial residual = 0.000622835, Final residual = 6.16574e-06, No Iterations 23
GAMG:  Solving for p, Initial residual = 0.000560576, Final residual = 5.59358e-06, No Iterations 9
GAMG:  Solving for p, Initial residual = 0.000527837, Final residual = 5.09218e-06, No Iterations 7
GAMG:  Solving for p, Initial residual = 0.000513929, Final residual = 4.93744e-06, No Iterations 5
GAMG:  Solving for p, Initial residual = 0.000499082, Final residual = 4.30745e-06, No Iterations 7
GAMG:  Solving for p, Initial residual = 0.000494396, Final residual = 4.74717e-06, No Iterations 5
GAMG:  Solving for p, Initial residual = 0.000481048, Final residual = 3.75753e-06, No Iterations 5
GAMG:  Solving for p, Initial residual = 0.000486904, Final residual = 4.12116e-06, No Iterations 4
GAMG:  Solving for p, Initial residual = 0.000482041, Final residual = 4.25974e-06, No Iterations 3
GAMG:  Solving for p, Initial residual = 0.000486562, Final residual = 3.75291e-06, No Iterations 4
time step continuity errors : sum local = 5.09011e-11, global = 1.07228e-13, cumulative = 1.07228e-13
GAMG:  Solving for p, Initial residual = 0.302398, Final residual = 0.00151914, No Iterations 2
GAMG:  Solving for p, Initial residual = 0.0210036, Final residual = 0.000122881, No Iterations 4
GAMG:  Solving for p, Initial residual = 0.00535525, Final residual = 5.08892e-05, No Iterations 5
GAMG:  Solving for p, Initial residual = 0.00178082, Final residual = 1.76051e-05, No Iterations 25
GAMG:  Solving for p, Initial residual = 0.000982999, Final residual = 9.79802e-06, No Iterations 32
GAMG:  Solving for p, Initial residual = 0.000709441, Final residual = 7.04911e-06, No Iterations 26
GAMG:  Solving for p, Initial residual = 0.000590549, Final residual = 5.87884e-06, No Iterations 16
GAMG:  Solving for p, Initial residual = 0.000533595, Final residual = 5.3344e-06, No Iterations 7
GAMG:  Solving for p, Initial residual = 0.000500426, Final residual = 4.7468e-06, No Iterations 7
GAMG:  Solving for p, Initial residual = 0.000489767, Final residual = 4.46441e-06, No Iterations 7
GAMG:  Solving for p, Initial residual = 0.000472524, Final residual = 4.47383e-06, No Iterations 6
GAMG:  Solving for p, Initial residual = 0.000466164, Final residual = 3.73053e-06, No Iterations 5
GAMG:  Solving for p, Initial residual = 0.000450745, Final residual = 4.17551e-06, No Iterations 4
GAMG:  Solving for p, Initial residual = 0.000456981, Final residual = 4.48949e-06, No Iterations 3
GAMG:  Solving for p, Initial residual = 0.000445234, Final residual = 3.73927e-06, No Iterations 4
GAMG:  Solving for p, Initial residual = 0.000445994, Final residual = 4.19894e-06, No Iterations 3
time step continuity errors : sum local = 5.68728e-11, global = 1.09238e-13, cumulative = 2.16466e-13
GAMG:  Solving for p, Initial residual = 0.302547, Final residual = 0.00152304, No Iterations 2
GAMG:  Solving for p, Initial residual = 0.0210151, Final residual = 0.000121428, No Iterations 4
GAMG:  Solving for p, Initial residual = 0.00535761, Final residual = 5.09239e-05, No Iterations 5
GAMG:  Solving for p, Initial residual = 0.00177835, Final residual = 1.74737e-05, No Iterations 25
GAMG:  Solving for p, Initial residual = 0.000979255, Final residual = 9.69304e-06, No Iterations 32
GAMG:  Solving for p, Initial residual = 0.0007116, Final residual = 7.01408e-06, No Iterations 25
GAMG:  Solving for p, Initial residual = 0.000597625, Final residual = 5.86536e-06, No Iterations 15
GAMG:  Solving for p, Initial residual = 0.000549578, Final residual = 5.36584e-06, No Iterations 7
GAMG:  Solving for p, Initial residual = 0.000518176, Final residual = 5.14547e-06, No Iterations 5
GAMG:  Solving for p, Initial residual = 0.000507454, Final residual = 4.40809e-06, No Iterations 7
GAMG:  Solving for p, Initial residual = 0.000486712, Final residual = 4.03569e-06, No Iterations 7
GAMG:  Solving for p, Initial residual = 0.000481897, Final residual = 3.77737e-06, No Iterations 5
GAMG:  Solving for p, Initial residual = 0.000469606, Final residual = 4.13759e-06, No Iterations 4
GAMG:  Solving for p, Initial residual = 0.000471409, Final residual = 4.6248e-06, No Iterations 3
GAMG:  Solving for p, Initial residual = 0.000464951, Final residual = 3.76895e-06, No Iterations 4
GAMG:  Solving for p, Initial residual = 0.000466908, Final residual = 4.03924e-06, No Iterations 3
time step continuity errors : sum local = 5.46928e-11, global = 1.17163e-13, cumulative = 3.3363e-13
GAMG:  Solving for nuTilda, Initial residual = 7.81034e-06, Final residual = 5.19457e-11, No Iterations 2
bounding nuTilda, min: -0.000169446 max: 0.529895 average: 0.0579357
PIMPLE: iteration 2
GAMG:  Solving for Ux, Initial residual = 2.06988e-06, Final residual = 8.59546e-11, No Iterations 1
GAMG:  Solving for Uy, Initial residual = 0.000116943, Final residual = 4.90813e-09, No Iterations 1
GAMG:  Solving for Uz, Initial residual = 3.03167e-05, Final residual = 1.02247e-09, No Iterations 1
GAMG:  Solving for p, Initial residual = 0.296788, Final residual = 0.00155854, No Iterations 2
GAMG:  Solving for p, Initial residual = 0.0206737, Final residual = 0.000126958, No Iterations 4
GAMG:  Solving for p, Initial residual = 0.00542853, Final residual = 4.79969e-05, No Iterations 5
GAMG:  Solving for p, Initial residual = 0.0018508, Final residual = 1.84627e-05, No Iterations 19
GAMG:  Solving for p, Initial residual = 0.00104872, Final residual = 1.04569e-05, No Iterations 25
GAMG:  Solving for p, Initial residual = 0.000782384, Final residual = 7.76867e-06, No Iterations 20
GAMG:  Solving for p, Initial residual = 0.000662251, Final residual = 6.59081e-06, No Iterations 11
GAMG:  Solving for p, Initial residual = 0.000603224, Final residual = 5.91901e-06, No Iterations 7
GAMG:  Solving for p, Initial residual = 0.000575961, Final residual = 5.26005e-06, No Iterations 7
GAMG:  Solving for p, Initial residual = 0.000563064, Final residual = 5.62967e-06, No Iterations 6
GAMG:  Solving for p, Initial residual = 0.000539813, Final residual = 4.58639e-06, No Iterations 5
GAMG:  Solving for p, Initial residual = 0.000525721, Final residual = 4.21796e-06, No Iterations 5
GAMG:  Solving for p, Initial residual = 0.00051451, Final residual = 4.63403e-06, No Iterations 4
GAMG:  Solving for p, Initial residual = 0.000513548, Final residual = 4.77971e-06, No Iterations 3
GAMG:  Solving for p, Initial residual = 0.000500852, Final residual = 4.20929e-06, No Iterations 4
GAMG:  Solving for p, Initial residual = 0.000501397, Final residual = 4.13542e-06, No Iterations 3
time step continuity errors : sum local = 5.52023e-11, global = 1.18584e-13, cumulative = 4.52214e-13
GAMG:  Solving for p, Initial residual = 0.190407, Final residual = 0.000964191, No Iterations 2
GAMG:  Solving for p, Initial residual = 0.0144341, Final residual = 8.61458e-05, No Iterations 4
GAMG:  Solving for p, Initial residual = 0.00402042, Final residual = 3.80091e-05, No Iterations 4
GAMG:  Solving for p, Initial residual = 0.00148569, Final residual = 1.44705e-05, No Iterations 13
GAMG:  Solving for p, Initial residual = 0.000899774, Final residual = 8.91369e-06, No Iterations 18
GAMG:  Solving for p, Initial residual = 0.000702815, Final residual = 6.90383e-06, No Iterations 13
GAMG:  Solving for p, Initial residual = 0.000612241, Final residual = 6.04024e-06, No Iterations 7
GAMG:  Solving for p, Initial residual = 0.000567636, Final residual = 5.29969e-06, No Iterations 7
GAMG:  Solving for p, Initial residual = 0.000538829, Final residual = 5.22834e-06, No Iterations 6
GAMG:  Solving for p, Initial residual = 0.000522711, Final residual = 4.62448e-06, No Iterations 5
GAMG:  Solving for p, Initial residual = 0.000501058, Final residual = 4.83481e-06, No Iterations 4
GAMG:  Solving for p, Initial residual = 0.000497193, Final residual = 3.99169e-06, No Iterations 5
GAMG:  Solving for p, Initial residual = 0.000493466, Final residual = 4.23774e-06, No Iterations 4
GAMG:  Solving for p, Initial residual = 0.0004861, Final residual = 4.23217e-06, No Iterations 3
GAMG:  Solving for p, Initial residual = 0.000474919, Final residual = 4.57467e-06, No Iterations 3
GAMG:  Solving for p, Initial residual = 0.000469717, Final residual = 4.18184e-06, No Iterations 3
time step continuity errors : sum local = 5.57797e-11, global = 1.34753e-13, cumulative = 5.86967e-13
GAMG:  Solving for p, Initial residual = 0.190458, Final residual = 0.00096638, No Iterations 2
GAMG:  Solving for p, Initial residual = 0.0144349, Final residual = 8.42709e-05, No Iterations 4
GAMG:  Solving for p, Initial residual = 0.00401309, Final residual = 3.82116e-05, No Iterations 4
GAMG:  Solving for p, Initial residual = 0.00147435, Final residual = 1.46144e-05, No Iterations 13
GAMG:  Solving for p, Initial residual = 0.000895761, Final residual = 8.86805e-06, No Iterations 18
GAMG:  Solving for p, Initial residual = 0.000691734, Final residual = 6.86117e-06, No Iterations 13
GAMG:  Solving for p, Initial residual = 0.000600699, Final residual = 5.83307e-06, No Iterations 9
GAMG:  Solving for p, Initial residual = 0.000556949, Final residual = 5.52279e-06, No Iterations 6
GAMG:  Solving for p, Initial residual = 0.000537896, Final residual = 4.93961e-06, No Iterations 5
GAMG:  Solving for p, Initial residual = 0.000526394, Final residual = 5.0555e-06, No Iterations 4
GAMG:  Solving for p, Initial residual = 0.000505856, Final residual = 4.68181e-06, No Iterations 4
GAMG:  Solving for p, Initial residual = 0.000499465, Final residual = 4.35996e-06, No Iterations 4
GAMG:  Solving for p, Initial residual = 0.000491074, Final residual = 4.90117e-06, No Iterations 3
GAMG:  Solving for p, Initial residual = 0.000490078, Final residual = 4.06281e-06, No Iterations 4
GAMG:  Solving for p, Initial residual = 0.000480703, Final residual = 4.27581e-06, No Iterations 3
GAMG:  Solving for p, Initial residual = 0.00047446, Final residual = 4.46602e-06, No Iterations 3
time step continuity errors : sum local = 5.95596e-11, global = 1.13067e-13, cumulative = 7.00035e-13
GAMG:  Solving for nuTilda, Initial residual = 1.42816e-06, Final residual = 2.40323e-11, No Iterations 2
bounding nuTilda, min: -7.17595e-05 max: 0.529918 average: 0.0579352
PIMPLE: iteration 3
GAMG:  Solving for Ux, Initial residual = 1.64045e-06, Final residual = 5.87456e-11, No Iterations 1
GAMG:  Solving for Uy, Initial residual = 9.64922e-05, Final residual = 3.35557e-09, No Iterations 1
GAMG:  Solving for Uz, Initial residual = 2.48169e-05, Final residual = 6.95448e-10, No Iterations 1
GAMG:  Solving for p, Initial residual = 0.185628, Final residual = 0.000933812, No Iterations 2
GAMG:  Solving for p, Initial residual = 0.0139098, Final residual = 0.000103202, No Iterations 4
GAMG:  Solving for p, Initial residual = 0.00392179, Final residual = 3.46133e-05, No Iterations 4
GAMG:  Solving for p, Initial residual = 0.001494, Final residual = 1.45213e-05, No Iterations 11
GAMG:  Solving for p, Initial residual = 0.000932457, Final residual = 9.25471e-06, No Iterations 12
GAMG:  Solving for p, Initial residual = 0.000736827, Final residual = 7.08733e-06, No Iterations 9
GAMG:  Solving for p, Initial residual = 0.0006394, Final residual = 5.8549e-06, No Iterations 7
GAMG:  Solving for p, Initial residual = 0.000598481, Final residual = 5.63497e-06, No Iterations 5
GAMG:  Solving for p, Initial residual = 0.000578341, Final residual = 5.44401e-06, No Iterations 4
GAMG:  Solving for p, Initial residual = 0.000558818, Final residual = 5.28456e-06, No Iterations 4
GAMG:  Solving for p, Initial residual = 0.000534003, Final residual = 5.31821e-06, No Iterations 3
GAMG:  Solving for p, Initial residual = 0.000531074, Final residual = 4.4704e-06, No Iterations 4
GAMG:  Solving for p, Initial residual = 0.000532699, Final residual = 4.74598e-06, No Iterations 3
GAMG:  Solving for p, Initial residual = 0.000522407, Final residual = 3.97377e-06, No Iterations 4
GAMG:  Solving for p, Initial residual = 0.000507476, Final residual = 4.10945e-06, No Iterations 3
GAMG:  Solving for p, Initial residual = 0.000504741, Final residual = 4.3642e-06, No Iterations 3
time step continuity errors : sum local = 5.75195e-11, global = 7.94145e-14, cumulative = 7.79449e-13
GAMG:  Solving for p, Initial residual = 0.122846, Final residual = 0.000594771, No Iterations 2
GAMG:  Solving for p, Initial residual = 0.00979718, Final residual = 6.85531e-05, No Iterations 4
GAMG:  Solving for p, Initial residual = 0.00293256, Final residual = 2.34225e-05, No Iterations 4
GAMG:  Solving for p, Initial residual = 0.00121442, Final residual = 1.16326e-05, No Iterations 7
GAMG:  Solving for p, Initial residual = 0.000816998, Final residual = 8.14623e-06, No Iterations 7
GAMG:  Solving for p, Initial residual = 0.000674419, Final residual = 6.73497e-06, No Iterations 6
GAMG:  Solving for p, Initial residual = 0.000599115, Final residual = 5.69236e-06, No Iterations 5
GAMG:  Solving for p, Initial residual = 0.000565301, Final residual = 5.55627e-06, No Iterations 4
GAMG:  Solving for p, Initial residual = 0.000551572, Final residual = 5.18e-06, No Iterations 4
GAMG:  Solving for p, Initial residual = 0.000538876, Final residual = 5.17801e-06, No Iterations 3
GAMG:  Solving for p, Initial residual = 0.00051588, Final residual = 4.37563e-06, No Iterations 4
GAMG:  Solving for p, Initial residual = 0.00051208, Final residual = 4.54578e-06, No Iterations 3
GAMG:  Solving for p, Initial residual = 0.000507484, Final residual = 4.81654e-06, No Iterations 3
GAMG:  Solving for p, Initial residual = 0.000502227, Final residual = 4.25813e-06, No Iterations 3
GAMG:  Solving for p, Initial residual = 0.000490821, Final residual = 4.50587e-06, No Iterations 3
GAMG:  Solving for p, Initial residual = 0.000489987, Final residual = 3.82099e-06, No Iterations 3
time step continuity errors : sum local = 5.03301e-11, global = -1.70482e-14, cumulative = 7.62401e-13
GAMG:  Solving for p, Initial residual = 0.122861, Final residual = 0.000595828, No Iterations 2
GAMG:  Solving for p, Initial residual = 0.00979555, Final residual = 7.83861e-05, No Iterations 4
GAMG:  Solving for p, Initial residual = 0.00294029, Final residual = 2.27004e-05, No Iterations 4
GAMG:  Solving for p, Initial residual = 0.00120824, Final residual = 1.14615e-05, No Iterations 7
GAMG:  Solving for p, Initial residual = 0.000807473, Final residual = 7.87027e-06, No Iterations 8
GAMG:  Solving for p, Initial residual = 0.000663148, Final residual = 6.52049e-06, No Iterations 6
GAMG:  Solving for p, Initial residual = 0.000589182, Final residual = 5.52927e-06, No Iterations 5
GAMG:  Solving for p, Initial residual = 0.00055361, Final residual = 5.41962e-06, No Iterations 4
GAMG:  Solving for p, Initial residual = 0.000544706, Final residual = 4.96417e-06, No Iterations 4
GAMG:  Solving for p, Initial residual = 0.000531688, Final residual = 4.97774e-06, No Iterations 3
GAMG:  Solving for p, Initial residual = 0.000507184, Final residual = 4.41959e-06, No Iterations 4
GAMG:  Solving for p, Initial residual = 0.000503563, Final residual = 4.44532e-06, No Iterations 3
GAMG:  Solving for p, Initial residual = 0.000505777, Final residual = 4.7888e-06, No Iterations 3
GAMG:  Solving for p, Initial residual = 0.000506268, Final residual = 4.11581e-06, No Iterations 3
GAMG:  Solving for p, Initial residual = 0.000493149, Final residual = 4.1737e-06, No Iterations 3
GAMG:  Solving for p, Initial residual = 0.000490964, Final residual = 3.91765e-06, No Iterations 3
time step continuity errors : sum local = 5.15956e-11, global = 5.26191e-14, cumulative = 8.1502e-13
GAMG:  Solving for nuTilda, Initial residual = 3.32073e-07, Final residual = 1.27209e-11, No Iterations 2
bounding nuTilda, min: -8.08056e-05 max: 0.529923 average: 0.0579352
PIMPLE: iteration 4
GAMG:  Solving for Ux, Initial residual = 1.1256e-06, Final residual = 4.24893e-11, No Iterations 1
GAMG:  Solving for Uy, Initial residual = 6.80305e-05, Final residual = 2.47484e-09, No Iterations 1
GAMG:  Solving for Uz, Initial residual = 1.7498e-05, Final residual = 5.14288e-10, No Iterations 1
GAMG:  Solving for p, Initial residual = 0.119749, Final residual = 0.000583535, No Iterations 2
GAMG:  Solving for p, Initial residual = 0.00937088, Final residual = 6.22363e-05, No Iterations 4
GAMG:  Solving for p, Initial residual = 0.00288359, Final residual = 2.58441e-05, No Iterations 4
GAMG:  Solving for p, Initial residual = 0.0012486, Final residual = 1.16597e-05, No Iterations 9
GAMG:  Solving for p, Initial residual = 0.000857672, Final residual = 8.20432e-06, No Iterations 9
GAMG:  Solving for p, Initial residual = 0.000714424, Final residual = 6.82656e-06, No Iterations 7
GAMG:  Solving for p, Initial residual = 0.000633373, Final residual = 6.0675e-06, No Iterations 5
GAMG:  Solving for p, Initial residual = 0.000601344, Final residual = 5.62107e-06, No Iterations 5
GAMG:  Solving for p, Initial residual = 0.000584201, Final residual = 5.53544e-06, No Iterations 4
GAMG:  Solving for p, Initial residual = 0.000575144, Final residual = 4.9726e-06, No Iterations 4
GAMG:  Solving for p, Initial residual = 0.000555427, Final residual = 5.22232e-06, No Iterations 3
GAMG:  Solving for p, Initial residual = 0.000549605, Final residual = 4.42223e-06, No Iterations 4
GAMG:  Solving for p, Initial residual = 0.00054861, Final residual = 4.80514e-06, No Iterations 3
GAMG:  Solving for p, Initial residual = 0.000548881, Final residual = 4.88732e-06, No Iterations 3
GAMG:  Solving for p, Initial residual = 0.000534313, Final residual = 4.70461e-06, No Iterations 3
GAMG:  Solving for p, Initial residual = 0.000533961, Final residual = 4.62923e-06, No Iterations 3
time step continuity errors : sum local = 6.04648e-11, global = 2.5985e-13, cumulative = 1.07487e-12
GAMG:  Solving for p, Initial residual = 0.0808287, Final residual = 0.000377354, No Iterations 2
GAMG:  Solving for p, Initial residual = 0.00665974, Final residual = 4.56101e-05, No Iterations 4
GAMG:  Solving for p, Initial residual = 0.00216438, Final residual = 1.72962e-05, No Iterations 4
GAMG:  Solving for p, Initial residual = 0.00101353, Final residual = 1.00636e-05, No Iterations 5
GAMG:  Solving for p, Initial residual = 0.000749401, Final residual = 7.16438e-06, No Iterations 6
GAMG:  Solving for p, Initial residual = 0.000649444, Final residual = 6.0182e-06, No Iterations 5
GAMG:  Solving for p, Initial residual = 0.000593353, Final residual = 5.13951e-06, No Iterations 5
GAMG:  Solving for p, Initial residual = 0.000567666, Final residual = 5.14817e-06, No Iterations 4
GAMG:  Solving for p, Initial residual = 0.000557724, Final residual = 5.26538e-06, No Iterations 3
GAMG:  Solving for p, Initial residual = 0.000549128, Final residual = 4.2097e-06, No Iterations 4
GAMG:  Solving for p, Initial residual = 0.000531496, Final residual = 4.71661e-06, No Iterations 3
GAMG:  Solving for p, Initial residual = 0.000530328, Final residual = 4.86847e-06, No Iterations 3
GAMG:  Solving for p, Initial residual = 0.000533203, Final residual = 4.47678e-06, No Iterations 3
GAMG:  Solving for p, Initial residual = 0.000530363, Final residual = 4.48082e-06, No Iterations 3
GAMG:  Solving for p, Initial residual = 0.000515542, Final residual = 3.98279e-06, No Iterations 3
GAMG:  Solving for p, Initial residual = 0.000512733, Final residual = 4.08146e-06, No Iterations 3
time step continuity errors : sum local = 5.32846e-11, global = 1.09191e-13, cumulative = 1.18406e-12
GAMG:  Solving for p, Initial residual = 0.0808266, Final residual = 0.000376694, No Iterations 2
GAMG:  Solving for p, Initial residual = 0.00665304, Final residual = 4.63733e-05, No Iterations 4
GAMG:  Solving for p, Initial residual = 0.00216967, Final residual = 1.70915e-05, No Iterations 4
GAMG:  Solving for p, Initial residual = 0.00101518, Final residual = 9.37295e-06, No Iterations 6
GAMG:  Solving for p, Initial residual = 0.000745189, Final residual = 7.14834e-06, No Iterations 5
GAMG:  Solving for p, Initial residual = 0.000648216, Final residual = 5.94289e-06, No Iterations 5
GAMG:  Solving for p, Initial residual = 0.00058981, Final residual = 5.75571e-06, No Iterations 4
GAMG:  Solving for p, Initial residual = 0.000563818, Final residual = 4.99514e-06, No Iterations 4
GAMG:  Solving for p, Initial residual = 0.000558243, Final residual = 5.44414e-06, No Iterations 3
GAMG:  Solving for p, Initial residual = 0.000551321, Final residual = 4.29097e-06, No Iterations 4
GAMG:  Solving for p, Initial residual = 0.0005325, Final residual = 4.59177e-06, No Iterations 3
GAMG:  Solving for p, Initial residual = 0.00052993, Final residual = 4.7122e-06, No Iterations 3
GAMG:  Solving for p, Initial residual = 0.000536104, Final residual = 4.25852e-06, No Iterations 3
GAMG:  Solving for p, Initial residual = 0.000534503, Final residual = 4.21239e-06, No Iterations 3
GAMG:  Solving for p, Initial residual = 0.000521357, Final residual = 3.83241e-06, No Iterations 3
GAMG:  Solving for p, Initial residual = 0.000518233, Final residual = 3.87355e-06, No Iterations 3
time step continuity errors : sum local = 5.05619e-11, global = 2.45454e-13, cumulative = 1.42952e-12
GAMG:  Solving for nuTilda, Initial residual = 1.06951e-07, Final residual = 7.46889e-12, No Iterations 2
bounding nuTilda, min: -7.92079e-05 max: 0.529924 average: 0.057935
PIMPLE: iteration 5
GAMG:  Solving for Ux, Initial residual = 7.41785e-07, Final residual = 7.41785e-07, No Iterations 0
GAMG:  Solving for Uy, Initial residual = 4.53237e-05, Final residual = 1.89054e-09, No Iterations 1
GAMG:  Solving for Uz, Initial residual = 1.17085e-05, Final residual = 3.89449e-10, No Iterations 1
GAMG:  Solving for p, Initial residual = 0.0788684, Final residual = 0.000363619, No Iterations 2
GAMG:  Solving for p, Initial residual = 0.00635354, Final residual = 4.21721e-05, No Iterations 4
GAMG:  Solving for p, Initial residual = 0.00217277, Final residual = 1.72695e-05, No Iterations 4
GAMG:  Solving for p, Initial residual = 0.00102955, Final residual = 1.02098e-05, No Iterations 5
GAMG:  Solving for p, Initial residual = 0.000770818, Final residual = 7.41977e-06, No Iterations 6
GAMG:  Solving for p, Initial residual = 0.000673428, Final residual = 6.11237e-06, No Iterations 5
GAMG:  Solving for p, Initial residual = 0.000613682, Final residual = 6.00818e-06, No Iterations 4
GAMG:  Solving for p, Initial residual = 0.000594053, Final residual = 5.41326e-06, No Iterations 4
GAMG:  Solving for p, Initial residual = 0.00058709, Final residual = 5.85706e-06, No Iterations 3
GAMG:  Solving for p, Initial residual = 0.00058429, Final residual = 4.64695e-06, No Iterations 4
GAMG:  Solving for p, Initial residual = 0.00056603, Final residual = 4.94407e-06, No Iterations 3
GAMG:  Solving for p, Initial residual = 0.000566746, Final residual = 5.53073e-06, No Iterations 3
GAMG:  Solving for p, Initial residual = 0.000567958, Final residual = 4.72335e-06, No Iterations 3
GAMG:  Solving for p, Initial residual = 0.000571178, Final residual = 4.8924e-06, No Iterations 3
GAMG:  Solving for p, Initial residual = 0.000556371, Final residual = 4.28626e-06, No Iterations 3
GAMG:  Solving for p, Initial residual = 0.000554876, Final residual = 4.3367e-06, No Iterations 3
time step continuity errors : sum local = 5.62733e-11, global = 1.50564e-13, cumulative = 1.58008e-12
GAMG:  Solving for p, Initial residual = 0.0539996, Final residual = 0.000242298, No Iterations 2
GAMG:  Solving for p, Initial residual = 0.00458156, Final residual = 4.02514e-05, No Iterations 4
GAMG:  Solving for p, Initial residual = 0.00166342, Final residual = 1.20153e-05, No Iterations 4
GAMG:  Solving for p, Initial residual = 0.000873069, Final residual = 7.41263e-06, No Iterations 5
GAMG:  Solving for p, Initial residual = 0.000692081, Final residual = 5.84352e-06, No Iterations 5
GAMG:  Solving for p, Initial residual = 0.000629276, Final residual = 5.61939e-06, No Iterations 4
GAMG:  Solving for p, Initial residual = 0.000585138, Final residual = 5.34861e-06, No Iterations 4
GAMG:  Solving for p, Initial residual = 0.000574059, Final residual = 5.56756e-06, No Iterations 3
GAMG:  Solving for p, Initial residual = 0.00056696, Final residual = 4.59593e-06, No Iterations 4
GAMG:  Solving for p, Initial residual = 0.000567973, Final residual = 4.90445e-06, No Iterations 3
GAMG:  Solving for p, Initial residual = 0.000549412, Final residual = 4.00686e-06, No Iterations 4
GAMG:  Solving for p, Initial residual = 0.000553116, Final residual = 3.97381e-06, No Iterations 3
GAMG:  Solving for p, Initial residual = 0.00055075, Final residual = 4.66282e-06, No Iterations 3
GAMG:  Solving for p, Initial residual = 0.000549148, Final residual = 4.091e-06, No Iterations 3
GAMG:  Solving for p, Initial residual = 0.000532795, Final residual = 3.8569e-06, No Iterations 3
GAMG:  Solving for p, Initial residual = 0.000534074, Final residual = 3.68846e-06, No Iterations 3
time step continuity errors : sum local = 4.78476e-11, global = 1.7476e-13, cumulative = 1.75484e-12
GAMG:  Solving for p, Initial residual = 0.0539882, Final residual = 0.000243417, No Iterations 2
GAMG:  Solving for p, Initial residual = 0.00457486, Final residual = 4.20115e-05, No Iterations 4
GAMG:  Solving for p, Initial residual = 0.0016565, Final residual = 1.20642e-05, No Iterations 4
GAMG:  Solving for p, Initial residual = 0.000868316, Final residual = 7.49267e-06, No Iterations 5
GAMG:  Solving for p, Initial residual = 0.000687562, Final residual = 5.86482e-06, No Iterations 5
GAMG:  Solving for p, Initial residual = 0.000629941, Final residual = 5.86939e-06, No Iterations 4
GAMG:  Solving for p, Initial residual = 0.000585657, Final residual = 5.24851e-06, No Iterations 4
GAMG:  Solving for p, Initial residual = 0.000574602, Final residual = 5.43365e-06, No Iterations 3
GAMG:  Solving for p, Initial residual = 0.000572706, Final residual = 4.42822e-06, No Iterations 4
GAMG:  Solving for p, Initial residual = 0.000568084, Final residual = 4.79635e-06, No Iterations 3
GAMG:  Solving for p, Initial residual = 0.000550225, Final residual = 5.38966e-06, No Iterations 3
GAMG:  Solving for p, Initial residual = 0.000555432, Final residual = 4.27113e-06, No Iterations 3
GAMG:  Solving for p, Initial residual = 0.000554008, Final residual = 4.32856e-06, No Iterations 3
GAMG:  Solving for p, Initial residual = 0.0005572, Final residual = 4.33431e-06, No Iterations 3
GAMG:  Solving for p, Initial residual = 0.000547962, Final residual = 4.2446e-06, No Iterations 3
GAMG:  Solving for p, Initial residual = 0.000546986, Final residual = 3.78106e-06, No Iterations 3
time step continuity errors : sum local = 4.90472e-11, global = 1.25031e-13, cumulative = 1.87987e-12
GAMG:  Solving for nuTilda, Initial residual = 4.68503e-08, Final residual = 4.73644e-12, No Iterations 2
bounding nuTilda, min: -7.86594e-05 max: 0.529924 average: 0.0579351
PIMPLE: iteration 6
GAMG:  Solving for Ux, Initial residual = 4.86127e-07, Final residual = 4.86127e-07, No Iterations 0
GAMG:  Solving for Uy, Initial residual = 2.9635e-05, Final residual = 1.44871e-09, No Iterations 1
GAMG:  Solving for Uz, Initial residual = 7.69623e-06, Final residual = 2.96044e-10, No Iterations 1
GAMG:  Solving for p, Initial residual = 0.0528808, Final residual = 0.000237781, No Iterations 2
GAMG:  Solving for p, Initial residual = 0.00440491, Final residual = 2.72318e-05, No Iterations 4
GAMG:  Solving for p, Initial residual = 0.00166854, Final residual = 1.2602e-05, No Iterations 4
GAMG:  Solving for p, Initial residual = 0.000895743, Final residual = 8.11547e-06, No Iterations 5
GAMG:  Solving for p, Initial residual = 0.000720226, Final residual = 6.22966e-06, No Iterations 5
GAMG:  Solving for p, Initial residual = 0.000653833, Final residual = 5.87265e-06, No Iterations 4
GAMG:  Solving for p, Initial residual = 0.000604641, Final residual = 5.88581e-06, No Iterations 4
GAMG:  Solving for p, Initial residual = 0.00058592, Final residual = 5.70436e-06, No Iterations 3
GAMG:  Solving for p, Initial residual = 0.000579103, Final residual = 5.26159e-06, No Iterations 4
GAMG:  Solving for p, Initial residual = 0.000576731, Final residual = 5.09357e-06, No Iterations 3
GAMG:  Solving for p, Initial residual = 0.000554669, Final residual = 4.14451e-06, No Iterations 4
GAMG:  Solving for p, Initial residual = 0.000558163, Final residual = 4.40479e-06, No Iterations 3
GAMG:  Solving for p, Initial residual = 0.000555231, Final residual = 5.28858e-06, No Iterations 3
GAMG:  Solving for p, Initial residual = 0.000555507, Final residual = 4.05704e-06, No Iterations 3
GAMG:  Solving for p, Initial residual = 0.000538648, Final residual = 4.9007e-06, No Iterations 3
GAMG:  Solving for p, Initial residual = 0.0005386, Final residual = 3.57421e-06, No Iterations 3
time step continuity errors : sum local = 4.61802e-11, global = 1.31874e-13, cumulative = 2.01174e-12
GAMG:  Solving for p, Initial residual = 0.0365401, Final residual = 0.000161284, No Iterations 2
GAMG:  Solving for p, Initial residual = 0.00321304, Final residual = 2.68297e-05, No Iterations 4
GAMG:  Solving for p, Initial residual = 0.00128628, Final residual = 1.01025e-05, No Iterations 4
GAMG:  Solving for p, Initial residual = 0.000768478, Final residual = 7.23819e-06, No Iterations 4
GAMG:  Solving for p, Initial residual = 0.00065305, Final residual = 6.13131e-06, No Iterations 4
GAMG:  Solving for p, Initial residual = 0.00060663, Final residual = 5.32471e-06, No Iterations 4
GAMG:  Solving for p, Initial residual = 0.000566035, Final residual = 5.32907e-06, No Iterations 3
GAMG:  Solving for p, Initial residual = 0.00055366, Final residual = 3.89968e-06, No Iterations 5
GAMG:  Solving for p, Initial residual = 0.000555724, Final residual = 4.71326e-06, No Iterations 3
GAMG:  Solving for p, Initial residual = 0.000549784, Final residual = 3.96024e-06, No Iterations 4
GAMG:  Solving for p, Initial residual = 0.000535439, Final residual = 4.15527e-06, No Iterations 3
GAMG:  Solving for p, Initial residual = 0.000533704, Final residual = 5.23414e-06, No Iterations 3
GAMG:  Solving for p, Initial residual = 0.000538549, Final residual = 3.96035e-06, No Iterations 3
GAMG:  Solving for p, Initial residual = 0.000533448, Final residual = 4.74409e-06, No Iterations 3
GAMG:  Solving for p, Initial residual = 0.000521104, Final residual = 3.52577e-06, No Iterations 3
GAMG:  Solving for p, Initial residual = 0.000519572, Final residual = 4.06355e-06, No Iterations 3
time step continuity errors : sum local = 5.24901e-11, global = 2.24415e-13, cumulative = 2.23616e-12
GAMG:  Solving for p, Initial residual = 0.0365352, Final residual = 0.000162866, No Iterations 2
GAMG:  Solving for p, Initial residual = 0.00320774, Final residual = 1.93731e-05, No Iterations 4
GAMG:  Solving for p, Initial residual = 0.00128067, Final residual = 9.82828e-06, No Iterations 4
GAMG:  Solving for p, Initial residual = 0.00076367, Final residual = 7.59855e-06, No Iterations 4
GAMG:  Solving for p, Initial residual = 0.000648199, Final residual = 5.07905e-06, No Iterations 5
GAMG:  Solving for p, Initial residual = 0.000600258, Final residual = 4.48087e-06, No Iterations 5
GAMG:  Solving for p, Initial residual = 0.000566642, Final residual = 4.43631e-06, No Iterations 4
GAMG:  Solving for p, Initial residual = 0.000556884, Final residual = 4.89226e-06, No Iterations 3
GAMG:  Solving for p, Initial residual = 0.000555925, Final residual = 4.29487e-06, No Iterations 4
GAMG:  Solving for p, Initial residual = 0.000557607, Final residual = 4.22928e-06, No Iterations 3
GAMG:  Solving for p, Initial residual = 0.000538896, Final residual = 5.1974e-06, No Iterations 3
GAMG:  Solving for p, Initial residual = 0.000542816, Final residual = 3.89348e-06, No Iterations 3
GAMG:  Solving for p, Initial residual = 0.00054292, Final residual = 4.71179e-06, No Iterations 3
GAMG:  Solving for p, Initial residual = 0.000541319, Final residual = 3.43033e-06, No Iterations 3
GAMG:  Solving for p, Initial residual = 0.000524294, Final residual = 3.80079e-06, No Iterations 3
GAMG:  Solving for p, Initial residual = 0.000523398, Final residual = 3.50593e-06, No Iterations 3
time step continuity errors : sum local = 4.52868e-11, global = 1.88213e-13, cumulative = 2.42437e-12
GAMG:  Solving for nuTilda, Initial residual = 2.63637e-08, Final residual = 5.91151e-11, No Iterations 1
bounding nuTilda, min: -7.85708e-05 max: 0.529924 average: 0.0579349
PIMPLE: iteration 7
GAMG:  Solving for Ux, Initial residual = 3.2121e-07, Final residual = 3.2121e-07, No Iterations 0
GAMG:  Solving for Uy, Initial residual = 1.93572e-05, Final residual = 1.13533e-09, No Iterations 1
GAMG:  Solving for Uz, Initial residual = 5.05767e-06, Final residual = 2.27782e-10, No Iterations 1
GAMG:  Solving for p, Initial residual = 0.0360097, Final residual = 0.000163244, No Iterations 2
GAMG:  Solving for p, Initial residual = 0.0031301, Final residual = 1.65109e-05, No Iterations 5
GAMG:  Solving for p, Initial residual = 0.00127562, Final residual = 9.2228e-06, No Iterations 4
GAMG:  Solving for p, Initial residual = 0.000777189, Final residual = 7.48319e-06, No Iterations 4
GAMG:  Solving for p, Initial residual = 0.000669026, Final residual = 6.66112e-06, No Iterations 4
GAMG:  Solving for p, Initial residual = 0.000623988, Final residual = 5.70227e-06, No Iterations 4
GAMG:  Solving for p, Initial residual = 0.000581149, Final residual = 5.6456e-06, No Iterations 3
GAMG:  Solving for p, Initial residual = 0.00056948, Final residual = 3.87298e-06, No Iterations 5
GAMG:  Solving for p, Initial residual = 0.000572337, Final residual = 4.83911e-06, No Iterations 3
GAMG:  Solving for p, Initial residual = 0.000567292, Final residual = 5.32665e-06, No Iterations 3
GAMG:  Solving for p, Initial residual = 0.000552253, Final residual = 4.77493e-06, No Iterations 3
GAMG:  Solving for p, Initial residual = 0.000560702, Final residual = 4.94312e-06, No Iterations 3
GAMG:  Solving for p, Initial residual = 0.000558697, Final residual = 4.16507e-06, No Iterations 3
GAMG:  Solving for p, Initial residual = 0.00055632, Final residual = 4.19517e-06, No Iterations 3
GAMG:  Solving for p, Initial residual = 0.000540421, Final residual = 3.79931e-06, No Iterations 3
GAMG:  Solving for p, Initial residual = 0.000544348, Final residual = 3.8096e-06, No Iterations 3
time step continuity errors : sum local = 4.90811e-11, global = 2.53071e-13, cumulative = 2.67744e-12
GAMG:  Solving for p, Initial residual = 0.0250509, Final residual = 0.000114476, No Iterations 2
GAMG:  Solving for p, Initial residual = 0.00232658, Final residual = 1.77265e-05, No Iterations 4
GAMG:  Solving for p, Initial residual = 0.00101835, Final residual = 7.59442e-06, No Iterations 4
GAMG:  Solving for p, Initial residual = 0.0006923, Final residual = 6.70146e-06, No Iterations 4
GAMG:  Solving for p, Initial residual = 0.000622068, Final residual = 5.37614e-06, No Iterations 4
GAMG:  Solving for p, Initial residual = 0.000589421, Final residual = 5.07633e-06, No Iterations 3
GAMG:  Solving for p, Initial residual = 0.00055661, Final residual = 3.6731e-06, No Iterations 5
GAMG:  Solving for p, Initial residual = 0.000554214, Final residual = 4.57632e-06, No Iterations 3
GAMG:  Solving for p, Initial residual = 0.000551151, Final residual = 5.13537e-06, No Iterations 3
GAMG:  Solving for p, Initial residual = 0.000556916, Final residual = 4.49955e-06, No Iterations 3
GAMG:  Solving for p, Initial residual = 0.000542245, Final residual = 4.34974e-06, No Iterations 3
GAMG:  Solving for p, Initial residual = 0.000546047, Final residual = 3.85606e-06, No Iterations 3
GAMG:  Solving for p, Initial residual = 0.00054867, Final residual = 3.91501e-06, No Iterations 3
GAMG:  Solving for p, Initial residual = 0.000546999, Final residual = 3.54057e-06, No Iterations 3
GAMG:  Solving for p, Initial residual = 0.000532389, Final residual = 3.51002e-06, No Iterations 3
GAMG:  Solving for p, Initial residual = 0.00053487, Final residual = 3.40108e-06, No Iterations 3
time step continuity errors : sum local = 4.38126e-11, global = 1.25189e-13, cumulative = 2.80263e-12
GAMG:  Solving for p, Initial residual = 0.0250513, Final residual = 0.000115702, No Iterations 2
GAMG:  Solving for p, Initial residual = 0.00232215, Final residual = 1.82642e-05, No Iterations 4
GAMG:  Solving for p, Initial residual = 0.00100921, Final residual = 7.58534e-06, No Iterations 4
GAMG:  Solving for p, Initial residual = 0.000683718, Final residual = 6.4383e-06, No Iterations 4
GAMG:  Solving for p, Initial residual = 0.000611639, Final residual = 5.4356e-06, No Iterations 4
GAMG:  Solving for p, Initial residual = 0.000580774, Final residual = 5.48798e-06, No Iterations 3
GAMG:  Solving for p, Initial residual = 0.000547784, Final residual = 3.86204e-06, No Iterations 5
GAMG:  Solving for p, Initial residual = 0.000545999, Final residual = 4.78291e-06, No Iterations 3
GAMG:  Solving for p, Initial residual = 0.000545809, Final residual = 5.2116e-06, No Iterations 3
GAMG:  Solving for p, Initial residual = 0.000553503, Final residual = 4.51289e-06, No Iterations 3
GAMG:  Solving for p, Initial residual = 0.000539939, Final residual = 4.55659e-06, No Iterations 3
GAMG:  Solving for p, Initial residual = 0.000546896, Final residual = 3.99812e-06, No Iterations 3
GAMG:  Solving for p, Initial residual = 0.000542781, Final residual = 3.93724e-06, No Iterations 3
GAMG:  Solving for p, Initial residual = 0.000544775, Final residual = 3.75039e-06, No Iterations 3
GAMG:  Solving for p, Initial residual = 0.000528062, Final residual = 3.6064e-06, No Iterations 3
GAMG:  Solving for p, Initial residual = 0.000533944, Final residual = 3.27073e-06, No Iterations 3
time step continuity errors : sum local = 4.21337e-11, global = 1.41982e-13, cumulative = 2.94461e-12
GAMG:  Solving for nuTilda, Initial residual = 1.66969e-08, Final residual = 3.8653e-11, No Iterations 1
bounding nuTilda, min: -7.85435e-05 max: 0.529924 average: 0.057935
PIMPLE: iteration 8
GAMG:  Solving for Ux, Initial residual = 2.14806e-07, Final residual = 2.14806e-07, No Iterations 0
GAMG:  Solving for Uy, Initial residual = 1.27531e-05, Final residual = 9.20349e-10, No Iterations 1
GAMG:  Solving for Uz, Initial residual = 3.35153e-06, Final residual = 1.79973e-10, No Iterations 1
GAMG:  Solving for p, Initial residual = 0.0248645, Final residual = 0.000119718, No Iterations 2
GAMG:  Solving for p, Initial residual = 0.00229811, Final residual = 1.92059e-05, No Iterations 4
GAMG:  Solving for p, Initial residual = 0.00101641, Final residual = 8.39418e-06, No Iterations 4
GAMG:  Solving for p, Initial residual = 0.000696754, Final residual = 6.74042e-06, No Iterations 4
GAMG:  Solving for p, Initial residual = 0.000631396, Final residual = 5.78329e-06, No Iterations 4
GAMG:  Solving for p, Initial residual = 0.000606195, Final residual = 6.00555e-06, No Iterations 3
GAMG:  Solving for p, Initial residual = 0.000574401, Final residual = 5.67645e-06, No Iterations 4
GAMG:  Solving for p, Initial residual = 0.000573007, Final residual = 5.17713e-06, No Iterations 3
GAMG:  Solving for p, Initial residual = 0.00057171, Final residual = 3.94808e-06, No Iterations 4
GAMG:  Solving for p, Initial residual = 0.000570555, Final residual = 4.25737e-06, No Iterations 3
GAMG:  Solving for p, Initial residual = 0.000551945, Final residual = 3.74931e-06, No Iterations 4
GAMG:  Solving for p, Initial residual = 0.000559704, Final residual = 3.8156e-06, No Iterations 3
GAMG:  Solving for p, Initial residual = 0.000563792, Final residual = 4.49484e-06, No Iterations 3
GAMG:  Solving for p, Initial residual = 0.000562055, Final residual = 3.88224e-06, No Iterations 3
GAMG:  Solving for p, Initial residual = 0.000550068, Final residual = 3.9971e-06, No Iterations 3
GAMG:  Solving for p, Initial residual = 0.000552218, Final residual = 3.63321e-06, No Iterations 3
time step continuity errors : sum local = 4.6726e-11, global = 3.01273e-13, cumulative = 3.24589e-12
GAMG:  Solving for p, Initial residual = 0.0174039, Final residual = 8.53767e-05, No Iterations 2
GAMG:  Solving for p, Initial residual = 0.00174895, Final residual = 1.3412e-05, No Iterations 5
GAMG:  Solving for p, Initial residual = 0.000839716, Final residual = 6.35484e-06, No Iterations 4
GAMG:  Solving for p, Initial residual = 0.000630122, Final residual = 5.29137e-06, No Iterations 4
GAMG:  Solving for p, Initial residual = 0.000590654, Final residual = 4.53235e-06, No Iterations 4
GAMG:  Solving for p, Initial residual = 0.000574401, Final residual = 5.12834e-06, No Iterations 3
GAMG:  Solving for p, Initial residual = 0.000553228, Final residual = 4.40931e-06, No Iterations 4
GAMG:  Solving for p, Initial residual = 0.000552402, Final residual = 4.45079e-06, No Iterations 3
GAMG:  Solving for p, Initial residual = 0.000551596, Final residual = 5.0528e-06, No Iterations 3
GAMG:  Solving for p, Initial residual = 0.000556909, Final residual = 4.30962e-06, No Iterations 3
GAMG:  Solving for p, Initial residual = 0.000543234, Final residual = 4.59841e-06, No Iterations 3
GAMG:  Solving for p, Initial residual = 0.000550578, Final residual = 4.13682e-06, No Iterations 3
GAMG:  Solving for p, Initial residual = 0.000549237, Final residual = 3.8783e-06, No Iterations 3
GAMG:  Solving for p, Initial residual = 0.000548724, Final residual = 3.71283e-06, No Iterations 3
GAMG:  Solving for p, Initial residual = 0.000535436, Final residual = 3.62203e-06, No Iterations 3
GAMG:  Solving for p, Initial residual = 0.000538415, Final residual = 3.59535e-06, No Iterations 3
time step continuity errors : sum local = 4.62372e-11, global = 2.5028e-13, cumulative = 3.49617e-12
GAMG:  Solving for p, Initial residual = 0.0174019, Final residual = 8.6384e-05, No Iterations 2
GAMG:  Solving for p, Initial residual = 0.00174449, Final residual = 1.26027e-05, No Iterations 5
GAMG:  Solving for p, Initial residual = 0.000830065, Final residual = 6.455e-06, No Iterations 4
GAMG:  Solving for p, Initial residual = 0.000620974, Final residual = 5.69861e-06, No Iterations 4
GAMG:  Solving for p, Initial residual = 0.000585537, Final residual = 4.92341e-06, No Iterations 4
GAMG:  Solving for p, Initial residual = 0.000569757, Final residual = 5.27101e-06, No Iterations 3
GAMG:  Solving for p, Initial residual = 0.000543891, Final residual = 4.35535e-06, No Iterations 4
GAMG:  Solving for p, Initial residual = 0.000551579, Final residual = 4.69248e-06, No Iterations 3
GAMG:  Solving for p, Initial residual = 0.000551748, Final residual = 5.19463e-06, No Iterations 3
GAMG:  Solving for p, Initial residual = 0.000556078, Final residual = 4.74682e-06, No Iterations 3
GAMG:  Solving for p, Initial residual = 0.000543091, Final residual = 5.04396e-06, No Iterations 3
GAMG:  Solving for p, Initial residual = 0.000558372, Final residual = 4.59514e-06, No Iterations 3
GAMG:  Solving for p, Initial residual = 0.00055731, Final residual = 4.54761e-06, No Iterations 3
GAMG:  Solving for p, Initial residual = 0.000557032, Final residual = 4.05739e-06, No Iterations 3
GAMG:  Solving for p, Initial residual = 0.000535565, Final residual = 3.45112e-06, No Iterations 3
GAMG:  Solving for p, Initial residual = 0.000539869, Final residual = 3.31143e-06, No Iterations 3
time step continuity errors : sum local = 4.2587e-11, global = 1.45727e-13, cumulative = 3.64189e-12
GAMG:  Solving for nuTilda, Initial residual = 1.21667e-08, Final residual = 2.68415e-11, No Iterations 1
bounding nuTilda, min: -7.85372e-05 max: 0.529924 average: 0.0579349
PIMPLE: iteration 9
GAMG:  Solving for Ux, Initial residual = 1.46644e-07, Final residual = 1.46644e-07, No Iterations 0
GAMG:  Solving for Uy, Initial residual = 8.53494e-06, Final residual = 7.87013e-10, No Iterations 1
GAMG:  Solving for Uz, Initial residual = 2.25278e-06, Final residual = 1.46572e-10, No Iterations 1
GAMG:  Solving for p, Initial residual = 0.0174382, Final residual = 8.95903e-05, No Iterations 2
GAMG:  Solving for p, Initial residual = 0.0017574, Final residual = 1.24836e-05, No Iterations 5
GAMG:  Solving for p, Initial residual = 0.000858426, Final residual = 6.93146e-06, No Iterations 4
GAMG:  Solving for p, Initial residual = 0.000648908, Final residual = 5.03123e-06, No Iterations 5
GAMG:  Solving for p, Initial residual = 0.00060887, Final residual = 4.21951e-06, No Iterations 5
GAMG:  Solving for p, Initial residual = 0.000593509, Final residual = 5.8718e-06, No Iterations 3
GAMG:  Solving for p, Initial residual = 0.00056983, Final residual = 4.26091e-06, No Iterations 4
GAMG:  Solving for p, Initial residual = 0.000569379, Final residual = 4.85897e-06, No Iterations 3
GAMG:  Solving for p, Initial residual = 0.000572484, Final residual = 5.67566e-06, No Iterations 3
GAMG:  Solving for p, Initial residual = 0.000581081, Final residual = 5.15472e-06, No Iterations 3
GAMG:  Solving for p, Initial residual = 0.000564797, Final residual = 5.06613e-06, No Iterations 3
GAMG:  Solving for p, Initial residual = 0.00056787, Final residual = 4.75535e-06, No Iterations 3
GAMG:  Solving for p, Initial residual = 0.000566452, Final residual = 4.65517e-06, No Iterations 3
GAMG:  Solving for p, Initial residual = 0.000569474, Final residual = 4.32419e-06, No Iterations 3
GAMG:  Solving for p, Initial residual = 0.00055434, Final residual = 4.43642e-06, No Iterations 3
GAMG:  Solving for p, Initial residual = 0.000563766, Final residual = 4.26751e-06, No Iterations 3
time step continuity errors : sum local = 5.48321e-11, global = 5.54651e-13, cumulative = 4.19655e-12
GAMG:  Solving for p, Initial residual = 0.0122714, Final residual = 6.493e-05, No Iterations 2
GAMG:  Solving for p, Initial residual = 0.00137891, Final residual = 1.34685e-05, No Iterations 4
GAMG:  Solving for p, Initial residual = 0.000750019, Final residual = 6.35273e-06, No Iterations 4
GAMG:  Solving for p, Initial residual = 0.000615112, Final residual = 5.58716e-06, No Iterations 4
GAMG:  Solving for p, Initial residual = 0.00058736, Final residual = 4.71419e-06, No Iterations 4
GAMG:  Solving for p, Initial residual = 0.000578771, Final residual = 4.91182e-06, No Iterations 3
GAMG:  Solving for p, Initial residual = 0.000559831, Final residual = 4.00881e-06, No Iterations 4
GAMG:  Solving for p, Initial residual = 0.000565266, Final residual = 4.40602e-06, No Iterations 3
GAMG:  Solving for p, Initial residual = 0.000561873, Final residual = 3.74342e-06, No Iterations 4
GAMG:  Solving for p, Initial residual = 0.00056539, Final residual = 3.91836e-06, No Iterations 3
GAMG:  Solving for p, Initial residual = 0.00055262, Final residual = 5.07386e-06, No Iterations 3
GAMG:  Solving for p, Initial residual = 0.000559672, Final residual = 3.85297e-06, No Iterations 3
GAMG:  Solving for p, Initial residual = 0.000560528, Final residual = 4.03226e-06, No Iterations 3
GAMG:  Solving for p, Initial residual = 0.000561708, Final residual = 3.4381e-06, No Iterations 3
GAMG:  Solving for p, Initial residual = 0.00054885, Final residual = 3.76029e-06, No Iterations 3
GAMG:  Solving for p, Initial residual = 0.000561147, Final residual = 3.47279e-06, No Iterations 3
time step continuity errors : sum local = 4.46175e-11, global = 4.07077e-13, cumulative = 4.60362e-12
GAMG:  Solving for p, Initial residual = 0.012273, Final residual = 6.55238e-05, No Iterations 2
GAMG:  Solving for p, Initial residual = 0.00137596, Final residual = 8.26437e-06, No Iterations 5
GAMG:  Solving for p, Initial residual = 0.00074087, Final residual = 5.93762e-06, No Iterations 4
GAMG:  Solving for p, Initial residual = 0.000611297, Final residual = 5.58315e-06, No Iterations 4
GAMG:  Solving for p, Initial residual = 0.000585818, Final residual = 5.78449e-06, No Iterations 3
GAMG:  Solving for p, Initial residual = 0.000581637, Final residual = 4.41086e-06, No Iterations 4
GAMG:  Solving for p, Initial residual = 0.000560389, Final residual = 4.70413e-06, No Iterations 3
GAMG:  Solving for p, Initial residual = 0.000562211, Final residual = 3.81216e-06, No Iterations 4
GAMG:  Solving for p, Initial residual = 0.000568425, Final residual = 4.19441e-06, No Iterations 3
GAMG:  Solving for p, Initial residual = 0.000568743, Final residual = 5.04938e-06, No Iterations 3
GAMG:  Solving for p, Initial residual = 0.000553083, Final residual = 4.03668e-06, No Iterations 3
GAMG:  Solving for p, Initial residual = 0.000559822, Final residual = 4.39375e-06, No Iterations 3
GAMG:  Solving for p, Initial residual = 0.000558963, Final residual = 4.23852e-06, No Iterations 3
GAMG:  Solving for p, Initial residual = 0.000563653, Final residual = 4.01657e-06, No Iterations 3
GAMG:  Solving for p, Initial residual = 0.000547765, Final residual = 3.66552e-06, No Iterations 3
GAMG:  Solving for p, Initial residual = 0.000558377, Final residual = 3.61321e-06, No Iterations 3
time step continuity errors : sum local = 4.64229e-11, global = 2.85321e-13, cumulative = 4.88894e-12
GAMG:  Solving for nuTilda, Initial residual = 8.83163e-09, Final residual = 1.98795e-11, No Iterations 1
bounding nuTilda, min: -7.85378e-05 max: 0.529924 average: 0.057935
PIMPLE: iteration 10
GAMG:  Solving for Ux, Initial residual = 1.48642e-07, Final residual = 1.48642e-07, No Iterations 0
GAMG:  Solving for Uy, Initial residual = 8.60376e-06, Final residual = 2.11775e-08, No Iterations 1
GAMG:  Solving for Uz, Initial residual = 2.2428e-06, Final residual = 4.07396e-09, No Iterations 1
GAMG:  Solving for p, Initial residual = 0.394457, Final residual = 0.00162645, No Iterations 2
GAMG:  Solving for p, Initial residual = 0.0551304, Final residual = 0.000428269, No Iterations 3
GAMG:  Solving for p, Initial residual = 0.0142404, Final residual = 9.94443e-05, No Iterations 4
GAMG:  Solving for p, Initial residual = 0.00444722, Final residual = 4.28315e-05, No Iterations 7
GAMG:  Solving for p, Initial residual = 0.00236861, Final residual = 2.34722e-05, No Iterations 10
GAMG:  Solving for p, Initial residual = 0.00176916, Final residual = 1.63575e-05, No Iterations 7
GAMG:  Solving for p, Initial residual = 0.00152787, Final residual = 1.38249e-05, No Iterations 5
GAMG:  Solving for p, Initial residual = 0.00145106, Final residual = 1.32781e-05, No Iterations 4
GAMG:  Solving for p, Initial residual = 0.00141451, Final residual = 1.38763e-05, No Iterations 3
GAMG:  Solving for p, Initial residual = 0.00141516, Final residual = 1.09135e-05, No Iterations 4
GAMG:  Solving for p, Initial residual = 0.00138543, Final residual = 1.12971e-05, No Iterations 3
GAMG:  Solving for p, Initial residual = 0.00139176, Final residual = 1.32716e-05, No Iterations 3
GAMG:  Solving for p, Initial residual = 0.00138726, Final residual = 9.56862e-06, No Iterations 3
GAMG:  Solving for p, Initial residual = 0.00138885, Final residual = 1.0147e-05, No Iterations 3
GAMG:  Solving for p, Initial residual = 0.00136709, Final residual = 1.36439e-05, No Iterations 1
GAMG:  Solving for p, Initial residual = 0.00136587, Final residual = 1.2462e-05, No Iterations 1
time step continuity errors : sum local = 9.68005e-11, global = 1.76743e-13, cumulative = 5.06569e-12
GAMG:  Solving for p, Initial residual = 0.0154349, Final residual = 0.000128943, No Iterations 3
GAMG:  Solving for p, Initial residual = 0.0042494, Final residual = 3.20266e-05, No Iterations 4
GAMG:  Solving for p, Initial residual = 0.00210359, Final residual = 1.60165e-05, No Iterations 4
GAMG:  Solving for p, Initial residual = 0.00164336, Final residual = 1.36735e-05, No Iterations 3
GAMG:  Solving for p, Initial residual = 0.00145764, Final residual = 1.10199e-05, No Iterations 3
GAMG:  Solving for p, Initial residual = 0.00140697, Final residual = 9.22221e-06, No Iterations 3
GAMG:  Solving for p, Initial residual = 0.0013585, Final residual = 7.89333e-06, No Iterations 3
GAMG:  Solving for p, Initial residual = 0.00136336, Final residual = 1.29267e-05, No Iterations 1
GAMG:  Solving for p, Initial residual = 0.0013479, Final residual = 1.15399e-05, No Iterations 1
GAMG:  Solving for p, Initial residual = 0.00135126, Final residual = 1.11411e-05, No Iterations 1
GAMG:  Solving for p, Initial residual = 0.00133342, Final residual = 1.08681e-05, No Iterations 1
GAMG:  Solving for p, Initial residual = 0.001356, Final residual = 1.11227e-05, No Iterations 1
GAMG:  Solving for p, Initial residual = 0.00134286, Final residual = 1.08163e-05, No Iterations 1
GAMG:  Solving for p, Initial residual = 0.00135071, Final residual = 1.01216e-05, No Iterations 1
GAMG:  Solving for p, Initial residual = 0.00133687, Final residual = 9.91011e-06, No Iterations 1
GAMG:  Solving for p, Initial residual = 0.00135597, Final residual = 1.02662e-05, No Iterations 1
time step continuity errors : sum local = 7.9752e-11, global = 3.82242e-13, cumulative = 5.44793e-12
GAMG:  Solving for p, Initial residual = 0.00564642, Final residual = 3.82411e-05, No Iterations 3
GAMG:  Solving for p, Initial residual = 0.00223154, Final residual = 1.36742e-05, No Iterations 4
GAMG:  Solving for p, Initial residual = 0.00164965, Final residual = 1.16026e-05, No Iterations 3
GAMG:  Solving for p, Initial residual = 0.00153182, Final residual = 1.16469e-05, No Iterations 2
GAMG:  Solving for p, Initial residual = 0.00146033, Final residual = 1.35495e-05, No Iterations 1
GAMG:  Solving for p, Initial residual = 0.00145829, Final residual = 1.20404e-05, No Iterations 1
GAMG:  Solving for p, Initial residual = 0.00141654, Final residual = 1.13765e-05, No Iterations 1
GAMG:  Solving for p, Initial residual = 0.00141412, Final residual = 1.14088e-05, No Iterations 1
GAMG:  Solving for p, Initial residual = 0.00140449, Final residual = 1.11327e-05, No Iterations 1
GAMG:  Solving for p, Initial residual = 0.0014358, Final residual = 1.06356e-05, No Iterations 1
GAMG:  Solving for p, Initial residual = 0.00141873, Final residual = 1.05357e-05, No Iterations 1
GAMG:  Solving for p, Initial residual = 0.00141162, Final residual = 1.09312e-05, No Iterations 1
GAMG:  Solving for p, Initial residual = 0.00138952, Final residual = 9.9286e-06, No Iterations 1
GAMG:  Solving for p, Initial residual = 0.00140285, Final residual = 1.02604e-05, No Iterations 1
GAMG:  Solving for p, Initial residual = 0.00137988, Final residual = 9.53644e-06, No Iterations 1
GAMG:  Solving for p, Initial residual = 0.001377, Final residual = 1.3759e-06, No Iterations 110
time step continuity errors : sum local = 1.06813e-11, global = -1.17406e-15, cumulative = 5.44675e-12
GAMG:  Solving for nuTilda, Initial residual = 1.44162e-07, Final residual = 2.66355e-11, No Iterations 2
bounding nuTilda, min: -0.000132444 max: 0.529924 average: 0.0579345
PIMPLE: converged in 10 iterations
ExecutionTime = 1008.42 s  ClockTime = 1010 s

forceCoeffs forceCoeffs1 execute:
    Coefficients
        Cm       : 0	(pressure: 0	viscous: 0)
        Cd       : 0.609193	(pressure: 0.585425	viscous: 0.0237677)
        Cl       : 0.0260536	(pressure: 0.0257667	viscous: 0.00028688)
        Cl(f)    : 0.0130268
        Cl(r)    : 0.0130268

Courant Number mean: 0.051068 max: 546.252
Time = 4000

PIMPLE: iteration 1
GAMG:  Solving for Ux, Initial residual = 3.17232e-06, Final residual = 1.07849e-10, No Iterations 1
GAMG:  Solving for Uy, Initial residual = 0.000171868, Final residual = 6.29303e-09, No Iterations 1
GAMG:  Solving for Uz, Initial residual = 4.48005e-05, Final residual = 1.38832e-09, No Iterations 1
GAMG:  Solving for p, Initial residual = 0.437514, Final residual = 0.00178739, No Iterations 2
GAMG:  Solving for p, Initial residual = 0.0283491, Final residual = 0.00021084, No Iterations 3
GAMG:  Solving for p, Initial residual = 0.00668315, Final residual = 4.96554e-05, No Iterations 4
GAMG:  Solving for p, Initial residual = 0.002158, Final residual = 2.08588e-05, No Iterations 8
GAMG:  Solving for p, Initial residual = 0.00113885, Final residual = 1.09633e-05, No Iterations 12
GAMG:  Solving for p, Initial residual = 0.000804169, Final residual = 7.74325e-06, No Iterations 10
GAMG:  Solving for p, Initial residual = 0.000679453, Final residual = 6.51518e-06, No Iterations 6
GAMG:  Solving for p, Initial residual = 0.00060483, Final residual = 5.9679e-06, No Iterations 4
GAMG:  Solving for p, Initial residual = 0.000595369, Final residual = 5.39481e-06, No Iterations 4
GAMG:  Solving for p, Initial residual = 0.000567069, Final residual = 5.03297e-06, No Iterations 4
GAMG:  Solving for p, Initial residual = 0.00056901, Final residual = 4.6439e-06, No Iterations 4
GAMG:  Solving for p, Initial residual = 0.000545665, Final residual = 5.08939e-06, No Iterations 2
GAMG:  Solving for p, Initial residual = 0.000553835, Final residual = 4.8852e-06, No Iterations 2
GAMG:  Solving for p, Initial residual = 0.000536275, Final residual = 4.70696e-06, No Iterations 2
GAMG:  Solving for p, Initial residual = 0.000540742, Final residual = 4.70701e-06, No Iterations 2
GAMG:  Solving for p, Initial residual = 0.000520898, Final residual = 4.42264e-06, No Iterations 2
time step continuity errors : sum local = 5.81719e-11, global = 9.32396e-14, cumulative = 5.53999e-12
GAMG:  Solving for p, Initial residual = 0.272795, Final residual = 0.0010817, No Iterations 2
GAMG:  Solving for p, Initial residual = 0.0198642, Final residual = 0.000137253, No Iterations 3
GAMG:  Solving for p, Initial residual = 0.0049804, Final residual = 4.68207e-05, No Iterations 3
GAMG:  Solving for p, Initial residual = 0.00174111, Final residual = 1.63931e-05, No Iterations 7
GAMG:  Solving for p, Initial residual = 0.00100361, Final residual = 1.00185e-05, No Iterations 8
GAMG:  Solving for p, Initial residual = 0.000745466, Final residual = 7.26692e-06, No Iterations 8
GAMG:  Solving for p, Initial residual = 0.000652815, Final residual = 6.44468e-06, No Iterations 4
GAMG:  Solving for p, Initial residual = 0.000585951, Final residual = 5.67841e-06, No Iterations 4
GAMG:  Solving for p, Initial residual = 0.000583963, Final residual = 5.05858e-06, No Iterations 4
GAMG:  Solving for p, Initial residual = 0.000556916, Final residual = 4.57417e-06, No Iterations 4
GAMG:  Solving for p, Initial residual = 0.000553011, Final residual = 5.24566e-06, No Iterations 2
GAMG:  Solving for p, Initial residual = 0.000524183, Final residual = 4.37311e-06, No Iterations 4
GAMG:  Solving for p, Initial residual = 0.000537976, Final residual = 4.56093e-06, No Iterations 2
GAMG:  Solving for p, Initial residual = 0.000518771, Final residual = 4.33727e-06, No Iterations 2
GAMG:  Solving for p, Initial residual = 0.000524052, Final residual = 4.1979e-06, No Iterations 2
GAMG:  Solving for p, Initial residual = 0.000506351, Final residual = 3.90414e-06, No Iterations 2
time step continuity errors : sum local = 5.1352e-11, global = 7.61598e-14, cumulative = 5.61615e-12
GAMG:  Solving for p, Initial residual = 0.272782, Final residual = 0.00108196, No Iterations 2
GAMG:  Solving for p, Initial residual = 0.0199132, Final residual = 0.000139203, No Iterations 3
GAMG:  Solving for p, Initial residual = 0.0050137, Final residual = 4.68116e-05, No Iterations 3
GAMG:  Solving for p, Initial residual = 0.00174467, Final residual = 1.64941e-05, No Iterations 7
GAMG:  Solving for p, Initial residual = 0.00100812, Final residual = 9.98534e-06, No Iterations 8
GAMG:  Solving for p, Initial residual = 0.000744759, Final residual = 7.2368e-06, No Iterations 8
GAMG:  Solving for p, Initial residual = 0.00065031, Final residual = 6.41883e-06, No Iterations 4
GAMG:  Solving for p, Initial residual = 0.000584663, Final residual = 5.64017e-06, No Iterations 4
GAMG:  Solving for p, Initial residual = 0.000585288, Final residual = 5.00933e-06, No Iterations 4
GAMG:  Solving for p, Initial residual = 0.000554636, Final residual = 4.50421e-06, No Iterations 4
GAMG:  Solving for p, Initial residual = 0.000550233, Final residual = 4.10972e-06, No Iterations 4
GAMG:  Solving for p, Initial residual = 0.000524716, Final residual = 4.90374e-06, No Iterations 2
GAMG:  Solving for p, Initial residual = 0.000539259, Final residual = 4.86429e-06, No Iterations 2
GAMG:  Solving for p, Initial residual = 0.000518733, Final residual = 4.59421e-06, No Iterations 2
GAMG:  Solving for p, Initial residual = 0.000523052, Final residual = 4.44302e-06, No Iterations 2
GAMG:  Solving for p, Initial residual = 0.000502565, Final residual = 4.17206e-06, No Iterations 2
time step continuity errors : sum local = 5.48838e-11, global = -1.33221e-13, cumulative = 5.48293e-12
GAMG:  Solving for nuTilda, Initial residual = 7.66622e-06, Final residual = 3.77294e-11, No Iterations 2
bounding nuTilda, min: -5.36939e-05 max: 0.530018 average: 0.0579332
PIMPLE: iteration 2
GAMG:  Solving for Ux, Initial residual = 2.12933e-06, Final residual = 6.14234e-11, No Iterations 1
GAMG:  Solving for Uy, Initial residual = 0.00012246, Final residual = 3.3767e-09, No Iterations 1
GAMG:  Solving for Uz, Initial residual = 3.18737e-05, Final residual = 7.60337e-10, No Iterations 1
GAMG:  Solving for p, Initial residual = 0.26904, Final residual = 0.00107143, No Iterations 2
GAMG:  Solving for p, Initial residual = 0.0194959, Final residual = 0.000140152, No Iterations 3
GAMG:  Solving for p, Initial residual = 0.00491331, Final residual = 3.90847e-05, No Iterations 4
GAMG:  Solving for p, Initial residual = 0.00174294, Final residual = 1.74228e-05, No Iterations 8
GAMG:  Solving for p, Initial residual = 0.0010254, Final residual = 1.007e-05, No Iterations 12
GAMG:  Solving for p, Initial residual = 0.000772254, Final residual = 7.70953e-06, No Iterations 9
GAMG:  Solving for p, Initial residual = 0.000664428, Final residual = 6.55484e-06, No Iterations 6
GAMG:  Solving for p, Initial residual = 0.000606164, Final residual = 5.63425e-06, No Iterations 6
GAMG:  Solving for p, Initial residual = 0.000604149, Final residual = 5.60444e-06, No Iterations 4
GAMG:  Solving for p, Initial residual = 0.000578905, Final residual = 5.09441e-06, No Iterations 4
GAMG:  Solving for p, Initial residual = 0.000565077, Final residual = 4.73841e-06, No Iterations 4
GAMG:  Solving for p, Initial residual = 0.000546277, Final residual = 4.37659e-06, No Iterations 4
GAMG:  Solving for p, Initial residual = 0.000560826, Final residual = 5.50651e-06, No Iterations 2
GAMG:  Solving for p, Initial residual = 0.00055268, Final residual = 5.5013e-06, No Iterations 2
GAMG:  Solving for p, Initial residual = 0.00055062, Final residual = 5.49445e-06, No Iterations 2
GAMG:  Solving for p, Initial residual = 0.000535423, Final residual = 4.22781e-06, No Iterations 4
time step continuity errors : sum local = 5.49008e-11, global = 5.94628e-14, cumulative = 5.5424e-12
GAMG:  Solving for p, Initial residual = 0.17453, Final residual = 0.000676786, No Iterations 2
GAMG:  Solving for p, Initial residual = 0.0136964, Final residual = 9.59031e-05, No Iterations 3
GAMG:  Solving for p, Initial residual = 0.00370449, Final residual = 2.73668e-05, No Iterations 4
GAMG:  Solving for p, Initial residual = 0.00142719, Final residual = 1.42367e-05, No Iterations 6
GAMG:  Solving for p, Initial residual = 0.000914308, Final residual = 9.10815e-06, No Iterations 7
GAMG:  Solving for p, Initial residual = 0.00072207, Final residual = 6.99437e-06, No Iterations 7
GAMG:  Solving for p, Initial residual = 0.000644633, Final residual = 6.29879e-06, No Iterations 4
GAMG:  Solving for p, Initial residual = 0.000592417, Final residual = 5.6499e-06, No Iterations 4
GAMG:  Solving for p, Initial residual = 0.000593457, Final residual = 5.75181e-06, No Iterations 3
GAMG:  Solving for p, Initial residual = 0.000568651, Final residual = 4.76701e-06, No Iterations 4
GAMG:  Solving for p, Initial residual = 0.000560159, Final residual = 4.41243e-06, No Iterations 4
GAMG:  Solving for p, Initial residual = 0.000543514, Final residual = 5.16767e-06, No Iterations 3
GAMG:  Solving for p, Initial residual = 0.000558885, Final residual = 5.49435e-06, No Iterations 2
GAMG:  Solving for p, Initial residual = 0.000543597, Final residual = 5.40016e-06, No Iterations 2
GAMG:  Solving for p, Initial residual = 0.000547946, Final residual = 5.08618e-06, No Iterations 2
GAMG:  Solving for p, Initial residual = 0.000533582, Final residual = 4.79987e-06, No Iterations 2
time step continuity errors : sum local = 6.23172e-11, global = 7.1533e-14, cumulative = 5.61393e-12
GAMG:  Solving for p, Initial residual = 0.174545, Final residual = 0.000677873, No Iterations 2
GAMG:  Solving for p, Initial residual = 0.0137026, Final residual = 9.5216e-05, No Iterations 3
GAMG:  Solving for p, Initial residual = 0.003714, Final residual = 2.70441e-05, No Iterations 4
GAMG:  Solving for p, Initial residual = 0.00142877, Final residual = 1.40782e-05, No Iterations 6
GAMG:  Solving for p, Initial residual = 0.000912349, Final residual = 9.11104e-06, No Iterations 7
GAMG:  Solving for p, Initial residual = 0.000716042, Final residual = 7.06138e-06, No Iterations 7
GAMG:  Solving for p, Initial residual = 0.000643286, Final residual = 6.37498e-06, No Iterations 4
GAMG:  Solving for p, Initial residual = 0.000588686, Final residual = 5.6984e-06, No Iterations 4
GAMG:  Solving for p, Initial residual = 0.000592965, Final residual = 5.80949e-06, No Iterations 3
GAMG:  Solving for p, Initial residual = 0.0005675, Final residual = 4.79655e-06, No Iterations 4
GAMG:  Solving for p, Initial residual = 0.00056479, Final residual = 4.43709e-06, No Iterations 4
GAMG:  Solving for p, Initial residual = 0.000545148, Final residual = 5.39833e-06, No Iterations 3
GAMG:  Solving for p, Initial residual = 0.000565909, Final residual = 5.08111e-06, No Iterations 2
GAMG:  Solving for p, Initial residual = 0.000549592, Final residual = 3.87608e-06, No Iterations 4
GAMG:  Solving for p, Initial residual = 0.000548151, Final residual = 4.47246e-06, No Iterations 2
GAMG:  Solving for p, Initial residual = 0.000535518, Final residual = 4.67352e-06, No Iterations 2
time step continuity errors : sum local = 6.06783e-11, global = 8.8189e-14, cumulative = 5.70212e-12
GAMG:  Solving for nuTilda, Initial residual = 1.39233e-06, Final residual = 1.93318e-11, No Iterations 2
bounding nuTilda, min: -7.23403e-05 max: 0.530039 average: 0.0579327
PIMPLE: iteration 3
GAMG:  Solving for Ux, Initial residual = 1.59062e-06, Final residual = 4.6354e-11, No Iterations 1
GAMG:  Solving for Uy, Initial residual = 9.28681e-05, Final residual = 2.53017e-09, No Iterations 1
GAMG:  Solving for Uz, Initial residual = 2.40691e-05, Final residual = 5.56835e-10, No Iterations 1
GAMG:  Solving for p, Initial residual = 0.170484, Final residual = 0.000664655, No Iterations 2
GAMG:  Solving for p, Initial residual = 0.0131706, Final residual = 0.000120633, No Iterations 3
GAMG:  Solving for p, Initial residual = 0.0037781, Final residual = 2.79756e-05, No Iterations 4
GAMG:  Solving for p, Initial residual = 0.00147108, Final residual = 1.33936e-05, No Iterations 7
GAMG:  Solving for p, Initial residual = 0.000947953, Final residual = 9.22962e-06, No Iterations 8
GAMG:  Solving for p, Initial residual = 0.000754299, Final residual = 7.25424e-06, No Iterations 7
GAMG:  Solving for p, Initial residual = 0.000668936, Final residual = 6.42771e-06, No Iterations 5
GAMG:  Solving for p, Initial residual = 0.000615494, Final residual = 6.06689e-06, No Iterations 4
GAMG:  Solving for p, Initial residual = 0.000620767, Final residual = 5.49357e-06, No Iterations 4
GAMG:  Solving for p, Initial residual = 0.000601869, Final residual = 5.54466e-06, No Iterations 3
GAMG:  Solving for p, Initial residual = 0.000588648, Final residual = 4.6897e-06, No Iterations 4
GAMG:  Solving for p, Initial residual = 0.000569468, Final residual = 5.14231e-06, No Iterations 3
GAMG:  Solving for p, Initial residual = 0.000587848, Final residual = 4.83344e-06, No Iterations 3
GAMG:  Solving for p, Initial residual = 0.000572785, Final residual = 4.77246e-06, No Iterations 3
GAMG:  Solving for p, Initial residual = 0.000570504, Final residual = 4.22675e-06, No Iterations 3
GAMG:  Solving for p, Initial residual = 0.000555743, Final residual = 4.20997e-06, No Iterations 3
time step continuity errors : sum local = 5.41441e-11, global = -7.30835e-14, cumulative = 5.62903e-12
GAMG:  Solving for p, Initial residual = 0.113615, Final residual = 0.000435146, No Iterations 2
GAMG:  Solving for p, Initial residual = 0.00933489, Final residual = 4.28094e-05, No Iterations 4
GAMG:  Solving for p, Initial residual = 0.00283918, Final residual = 1.59277e-05, No Iterations 4
GAMG:  Solving for p, Initial residual = 0.00120538, Final residual = 1.03148e-05, No Iterations 5
GAMG:  Solving for p, Initial residual = 0.000847816, Final residual = 7.85532e-06, No Iterations 5
GAMG:  Solving for p, Initial residual = 0.000702865, Final residual = 6.94801e-06, No Iterations 4
GAMG:  Solving for p, Initial residual = 0.000646208, Final residual = 6.11978e-06, No Iterations 4
GAMG:  Solving for p, Initial residual = 0.000606945, Final residual = 5.85244e-06, No Iterations 3
GAMG:  Solving for p, Initial residual = 0.000618601, Final residual = 5.01486e-06, No Iterations 4
GAMG:  Solving for p, Initial residual = 0.000597613, Final residual = 5.21054e-06, No Iterations 3
GAMG:  Solving for p, Initial residual = 0.000590933, Final residual = 4.98698e-06, No Iterations 3
GAMG:  Solving for p, Initial residual = 0.000571618, Final residual = 4.63276e-06, No Iterations 3
GAMG:  Solving for p, Initial residual = 0.000595636, Final residual = 4.48546e-06, No Iterations 3
GAMG:  Solving for p, Initial residual = 0.00057847, Final residual = 5.51155e-06, No Iterations 2
GAMG:  Solving for p, Initial residual = 0.000577483, Final residual = 5.57499e-06, No Iterations 2
GAMG:  Solving for p, Initial residual = 0.000559914, Final residual = 5.3341e-06, No Iterations 2
time step continuity errors : sum local = 6.85804e-11, global = -8.30824e-14, cumulative = 5.54595e-12
GAMG:  Solving for p, Initial residual = 0.113633, Final residual = 0.000435994, No Iterations 2
GAMG:  Solving for p, Initial residual = 0.00933913, Final residual = 8.27268e-05, No Iterations 3
GAMG:  Solving for p, Initial residual = 0.00285352, Final residual = 1.98532e-05, No Iterations 4
GAMG:  Solving for p, Initial residual = 0.00121231, Final residual = 1.1325e-05, No Iterations 5
GAMG:  Solving for p, Initial residual = 0.000851703, Final residual = 8.167e-06, No Iterations 5
GAMG:  Solving for p, Initial residual = 0.00070229, Final residual = 6.5382e-06, No Iterations 5
GAMG:  Solving for p, Initial residual = 0.000644827, Final residual = 6.09652e-06, No Iterations 4
GAMG:  Solving for p, Initial residual = 0.000602722, Final residual = 5.95817e-06, No Iterations 3
GAMG:  Solving for p, Initial residual = 0.000615536, Final residual = 5.95014e-06, No Iterations 3
GAMG:  Solving for p, Initial residual = 0.000595445, Final residual = 5.19006e-06, No Iterations 3
GAMG:  Solving for p, Initial residual = 0.000587977, Final residual = 4.96827e-06, No Iterations 3
GAMG:  Solving for p, Initial residual = 0.000567974, Final residual = 4.57145e-06, No Iterations 3
GAMG:  Solving for p, Initial residual = 0.000591545, Final residual = 4.40415e-06, No Iterations 3
GAMG:  Solving for p, Initial residual = 0.000576418, Final residual = 4.22289e-06, No Iterations 3
GAMG:  Solving for p, Initial residual = 0.000572896, Final residual = 5.46596e-06, No Iterations 2
GAMG:  Solving for p, Initial residual = 0.000555694, Final residual = 5.40662e-06, No Iterations 2
time step continuity errors : sum local = 6.95065e-11, global = -6.47206e-14, cumulative = 5.48123e-12
GAMG:  Solving for nuTilda, Initial residual = 3.14191e-07, Final residual = 1.04402e-11, No Iterations 2
bounding nuTilda, min: -7.09184e-05 max: 0.530045 average: 0.0579327
PIMPLE: iteration 4
GAMG:  Solving for Ux, Initial residual = 1.07898e-06, Final residual = 3.5587e-11, No Iterations 1
GAMG:  Solving for Uy, Initial residual = 6.41985e-05, Final residual = 2.00055e-09, No Iterations 1
GAMG:  Solving for Uz, Initial residual = 1.66251e-05, Final residual = 4.16849e-10, No Iterations 1
GAMG:  Solving for p, Initial residual = 0.110536, Final residual = 0.000438394, No Iterations 2
GAMG:  Solving for p, Initial residual = 0.00892585, Final residual = 4.62836e-05, No Iterations 4
GAMG:  Solving for p, Initial residual = 0.00280664, Final residual = 1.96647e-05, No Iterations 4
GAMG:  Solving for p, Initial residual = 0.00122377, Final residual = 1.18936e-05, No Iterations 5
GAMG:  Solving for p, Initial residual = 0.000875669, Final residual = 8.18321e-06, No Iterations 6
GAMG:  Solving for p, Initial residual = 0.000733992, Final residual = 6.6893e-06, No Iterations 5
GAMG:  Solving for p, Initial residual = 0.000676451, Final residual = 6.18945e-06, No Iterations 4
GAMG:  Solving for p, Initial residual = 0.000639029, Final residual = 5.63348e-06, No Iterations 4
GAMG:  Solving for p, Initial residual = 0.000649367, Final residual = 5.44276e-06, No Iterations 3
GAMG:  Solving for p, Initial residual = 0.000626985, Final residual = 5.92683e-06, No Iterations 3
GAMG:  Solving for p, Initial residual = 0.000615016, Final residual = 5.15849e-06, No Iterations 3
GAMG:  Solving for p, Initial residual = 0.000603542, Final residual = 5.04767e-06, No Iterations 3
GAMG:  Solving for p, Initial residual = 0.000623721, Final residual = 4.49533e-06, No Iterations 3
GAMG:  Solving for p, Initial residual = 0.000610088, Final residual = 4.20828e-06, No Iterations 3
GAMG:  Solving for p, Initial residual = 0.000598941, Final residual = 4.14889e-06, No Iterations 3
GAMG:  Solving for p, Initial residual = 0.000590279, Final residual = 3.89506e-06, No Iterations 3
time step continuity errors : sum local = 4.97661e-11, global = -5.1164e-14, cumulative = 5.43007e-12
GAMG:  Solving for p, Initial residual = 0.0749558, Final residual = 0.000290185, No Iterations 2
GAMG:  Solving for p, Initial residual = 0.00638969, Final residual = 3.22434e-05, No Iterations 4
GAMG:  Solving for p, Initial residual = 0.00214479, Final residual = 1.18655e-05, No Iterations 4
GAMG:  Solving for p, Initial residual = 0.00102163, Final residual = 9.71342e-06, No Iterations 4
GAMG:  Solving for p, Initial residual = 0.000787192, Final residual = 7.30639e-06, No Iterations 4
GAMG:  Solving for p, Initial residual = 0.000680438, Final residual = 6.76531e-06, No Iterations 3
GAMG:  Solving for p, Initial residual = 0.00063762, Final residual = 5.16751e-06, No Iterations 5
GAMG:  Solving for p, Initial residual = 0.00060805, Final residual = 5.46013e-06, No Iterations 3
GAMG:  Solving for p, Initial residual = 0.000620175, Final residual = 5.41139e-06, No Iterations 3
GAMG:  Solving for p, Initial residual = 0.000610844, Final residual = 4.8537e-06, No Iterations 3
GAMG:  Solving for p, Initial residual = 0.000603828, Final residual = 4.55748e-06, No Iterations 3
GAMG:  Solving for p, Initial residual = 0.000589666, Final residual = 4.15684e-06, No Iterations 3
GAMG:  Solving for p, Initial residual = 0.000602106, Final residual = 4.0107e-06, No Iterations 3
GAMG:  Solving for p, Initial residual = 0.000589975, Final residual = 3.8199e-06, No Iterations 3
GAMG:  Solving for p, Initial residual = 0.000586287, Final residual = 3.81563e-06, No Iterations 3
GAMG:  Solving for p, Initial residual = 0.00057855, Final residual = 5.65303e-06, No Iterations 2
time step continuity errors : sum local = 7.22011e-11, global = -9.98721e-14, cumulative = 5.33019e-12
GAMG:  Solving for p, Initial residual = 0.074964, Final residual = 0.000290365, No Iterations 2
GAMG:  Solving for p, Initial residual = 0.00639194, Final residual = 3.93002e-05, No Iterations 4
GAMG:  Solving for p, Initial residual = 0.00216214, Final residual = 1.8582e-05, No Iterations 3
[...]
GAMG:  Solving for p, Initial residual = 0.000818539, Final residual = 4.10884e-06, No Iterations 4
GAMG:  Solving for p, Initial residual = 0.000645139, Final residual = 4.99671e-06, No Iterations 2
GAMG:  Solving for p, Initial residual = 0.00061422, Final residual = 4.35281e-06, No Iterations 2
GAMG:  Solving for p, Initial residual = 0.000601182, Final residual = 3.75951e-06, No Iterations 2
GAMG:  Solving for p, Initial residual = 0.000606865, Final residual = 3.47465e-06, No Iterations 2
GAMG:  Solving for p, Initial residual = 0.000608432, Final residual = 3.41635e-06, No Iterations 2
GAMG:  Solving for p, Initial residual = 0.000619543, Final residual = 3.08476e-06, No Iterations 2
GAMG:  Solving for p, Initial residual = 0.000617666, Final residual = 3.06574e-06, No Iterations 2
GAMG:  Solving for p, Initial residual = 0.000624887, Final residual = 2.87945e-06, No Iterations 2
GAMG:  Solving for p, Initial residual = 0.000614592, Final residual = 2.9621e-06, No Iterations 2
time step continuity errors : sum local = 8.65973e-11, global = -7.16203e-14, cumulative = -3.84193e-11
GAMG:  Solving for nuTilda, Initial residual = 2.93129e-07, Final residual = 1.97455e-11, No Iterations 2
bounding nuTilda, min: -7.53189e-05 max: 0.532086 average: 0.057899
PIMPLE: iteration 5
GAMG:  Solving for Ux, Initial residual = 4.27523e-07, Final residual = 4.27523e-07, No Iterations 0
GAMG:  Solving for Uy, Initial residual = 2.00212e-05, Final residual = 3.54744e-09, No Iterations 1
GAMG:  Solving for Uz, Initial residual = 5.36635e-06, Final residual = 7.91059e-10, No Iterations 1
GAMG:  Solving for p, Initial residual = 0.00370305, Final residual = 2.44928e-05, No Iterations 3
GAMG:  Solving for p, Initial residual = 0.00108992, Final residual = 7.14893e-06, No Iterations 4
GAMG:  Solving for p, Initial residual = 0.000741033, Final residual = 6.91096e-06, No Iterations 2
GAMG:  Solving for p, Initial residual = 0.000640585, Final residual = 5.65027e-06, No Iterations 2
GAMG:  Solving for p, Initial residual = 0.000636043, Final residual = 4.88496e-06, No Iterations 2
GAMG:  Solving for p, Initial residual = 0.000628692, Final residual = 4.4203e-06, No Iterations 2
GAMG:  Solving for p, Initial residual = 0.000624065, Final residual = 4.11416e-06, No Iterations 2
GAMG:  Solving for p, Initial residual = 0.000615045, Final residual = 3.77444e-06, No Iterations 2
GAMG:  Solving for p, Initial residual = 0.000627686, Final residual = 3.64268e-06, No Iterations 2
GAMG:  Solving for p, Initial residual = 0.000626914, Final residual = 3.36897e-06, No Iterations 2
GAMG:  Solving for p, Initial residual = 0.000622298, Final residual = 3.24705e-06, No Iterations 2
time step continuity errors : sum local = 9.48872e-11, global = 2.43724e-13, cumulative = -3.81755e-11
GAMG:  Solving for p, Initial residual = 0.00168109, Final residual = 1.27037e-05, No Iterations 3
GAMG:  Solving for p, Initial residual = 0.00075068, Final residual = 6.61734e-06, No Iterations 2
GAMG:  Solving for p, Initial residual = 0.0006177, Final residual = 5.62475e-06, No Iterations 2
GAMG:  Solving for p, Initial residual = 0.000588129, Final residual = 4.33392e-06, No Iterations 2
GAMG:  Solving for p, Initial residual = 0.000586603, Final residual = 3.89323e-06, No Iterations 2
GAMG:  Solving for p, Initial residual = 0.00059729, Final residual = 3.4412e-06, No Iterations 2
GAMG:  Solving for p, Initial residual = 0.000595756, Final residual = 3.27023e-06, No Iterations 2
GAMG:  Solving for p, Initial residual = 0.000595378, Final residual = 3.07549e-06, No Iterations 2
GAMG:  Solving for p, Initial residual = 0.000597622, Final residual = 3.01097e-06, No Iterations 2
GAMG:  Solving for p, Initial residual = 0.000607754, Final residual = 3.00734e-06, No Iterations 2
GAMG:  Solving for p, Initial residual = 0.000606197, Final residual = 2.94628e-06, No Iterations 2
time step continuity errors : sum local = 8.60803e-11, global = -3.47788e-13, cumulative = -3.85233e-11
GAMG:  Solving for p, Initial residual = 0.00159559, Final residual = 1.2933e-05, No Iterations 2
GAMG:  Solving for p, Initial residual = 0.000714214, Final residual = 4.40961e-06, No Iterations 4
GAMG:  Solving for p, Initial residual = 0.00061717, Final residual = 3.98168e-06, No Iterations 2
GAMG:  Solving for p, Initial residual = 0.000604862, Final residual = 3.69899e-06, No Iterations 2
GAMG:  Solving for p, Initial residual = 0.000599087, Final residual = 3.36676e-06, No Iterations 2
GAMG:  Solving for p, Initial residual = 0.000599499, Final residual = 3.15395e-06, No Iterations 2
GAMG:  Solving for p, Initial residual = 0.000603537, Final residual = 3.17062e-06, No Iterations 2
GAMG:  Solving for p, Initial residual = 0.000611488, Final residual = 3.06451e-06, No Iterations 2
GAMG:  Solving for p, Initial residual = 0.000614066, Final residual = 2.969e-06, No Iterations 2
GAMG:  Solving for p, Initial residual = 0.000614477, Final residual = 2.9263e-06, No Iterations 2
GAMG:  Solving for p, Initial residual = 0.000606952, Final residual = 2.71982e-06, No Iterations 2
time step continuity errors : sum local = 7.94688e-11, global = -1.30502e-13, cumulative = -3.86538e-11
GAMG:  Solving for nuTilda, Initial residual = 1.16435e-07, Final residual = 1.27383e-11, No Iterations 2
bounding nuTilda, min: -7.54117e-05 max: 0.532088 average: 0.0578988
PIMPLE: iteration 6
GAMG:  Solving for Ux, Initial residual = 2.31959e-07, Final residual = 2.31959e-07, No Iterations 0
GAMG:  Solving for Uy, Initial residual = 9.89822e-06, Final residual = 2.61642e-09, No Iterations 1
GAMG:  Solving for Uz, Initial residual = 2.64899e-06, Final residual = 5.49173e-10, No Iterations 1
GAMG:  Solving for p, Initial residual = 0.00280316, Final residual = 2.6127e-05, No Iterations 2
GAMG:  Solving for p, Initial residual = 0.000914393, Final residual = 8.19913e-06, No Iterations 4
GAMG:  Solving for p, Initial residual = 0.000701277, Final residual = 5.65124e-06, No Iterations 2
GAMG:  Solving for p, Initial residual = 0.000625863, Final residual = 4.74507e-06, No Iterations 2
GAMG:  Solving for p, Initial residual = 0.000625017, Final residual = 4.25678e-06, No Iterations 2
GAMG:  Solving for p, Initial residual = 0.000623035, Final residual = 3.85077e-06, No Iterations 2
GAMG:  Solving for p, Initial residual = 0.000619923, Final residual = 3.61474e-06, No Iterations 2
GAMG:  Solving for p, Initial residual = 0.00061848, Final residual = 3.42213e-06, No Iterations 2
GAMG:  Solving for p, Initial residual = 0.000630946, Final residual = 3.22588e-06, No Iterations 2
GAMG:  Solving for p, Initial residual = 0.000633052, Final residual = 3.13263e-06, No Iterations 2
GAMG:  Solving for p, Initial residual = 0.000626959, Final residual = 3.04583e-06, No Iterations 2
time step continuity errors : sum local = 8.90132e-11, global = -6.9769e-13, cumulative = -3.93515e-11
GAMG:  Solving for p, Initial residual = 0.00138838, Final residual = 1.32933e-05, No Iterations 2
GAMG:  Solving for p, Initial residual = 0.000699409, Final residual = 4.83987e-06, No Iterations 4
GAMG:  Solving for p, Initial residual = 0.00061819, Final residual = 3.77523e-06, No Iterations 2
GAMG:  Solving for p, Initial residual = 0.000603006, Final residual = 3.48209e-06, No Iterations 2
GAMG:  Solving for p, Initial residual = 0.000611795, Final residual = 3.04073e-06, No Iterations 2
GAMG:  Solving for p, Initial residual = 0.000619198, Final residual = 2.91006e-06, No Iterations 2
GAMG:  Solving for p, Initial residual = 0.000613051, Final residual = 2.92453e-06, No Iterations 2
GAMG:  Solving for p, Initial residual = 0.000608689, Final residual = 2.81763e-06, No Iterations 2
GAMG:  Solving for p, Initial residual = 0.000605571, Final residual = 2.76658e-06, No Iterations 2
GAMG:  Solving for p, Initial residual = 0.000620144, Final residual = 2.74502e-06, No Iterations 2
GAMG:  Solving for p, Initial residual = 0.000611724, Final residual = 2.55328e-06, No Iterations 2
time step continuity errors : sum local = 7.46022e-11, global = -2.68728e-14, cumulative = -3.93784e-11
GAMG:  Solving for p, Initial residual = 0.0013164, Final residual = 1.02713e-05, No Iterations 2
GAMG:  Solving for p, Initial residual = 0.000661468, Final residual = 4.39108e-06, No Iterations 4
GAMG:  Solving for p, Initial residual = 0.000595541, Final residual = 3.58168e-06, No Iterations 2
GAMG:  Solving for p, Initial residual = 0.000595431, Final residual = 3.31431e-06, No Iterations 2
GAMG:  Solving for p, Initial residual = 0.000595632, Final residual = 3.09418e-06, No Iterations 2
GAMG:  Solving for p, Initial residual = 0.000602722, Final residual = 2.8887e-06, No Iterations 2
GAMG:  Solving for p, Initial residual = 0.000605051, Final residual = 2.86577e-06, No Iterations 2
GAMG:  Solving for p, Initial residual = 0.000612048, Final residual = 2.74081e-06, No Iterations 2
GAMG:  Solving for p, Initial residual = 0.000618919, Final residual = 2.62897e-06, No Iterations 2
GAMG:  Solving for p, Initial residual = 0.000615209, Final residual = 2.54318e-06, No Iterations 2
GAMG:  Solving for p, Initial residual = 0.000608121, Final residual = 2.60787e-06, No Iterations 2
time step continuity errors : sum local = 7.61968e-11, global = -4.92855e-13, cumulative = -3.98713e-11
GAMG:  Solving for nuTilda, Initial residual = 5.49367e-08, Final residual = 8.65321e-12, No Iterations 2
bounding nuTilda, min: -7.53725e-05 max: 0.532089 average: 0.0578989
PIMPLE: iteration 7
GAMG:  Solving for Ux, Initial residual = 2.102e-07, Final residual = 2.102e-07, No Iterations 0
GAMG:  Solving for Uy, Initial residual = 8.47493e-06, Final residual = 7.02482e-08, No Iterations 1
GAMG:  Solving for Uz, Initial residual = 2.18626e-06, Final residual = 1.29739e-08, No Iterations 1
GAMG:  Solving for p, Initial residual = 0.287841, Final residual = 0.00117683, No Iterations 2
GAMG:  Solving for p, Initial residual = 0.0347447, Final residual = 0.000269642, No Iterations 3
GAMG:  Solving for p, Initial residual = 0.00927209, Final residual = 5.17306e-05, No Iterations 4
GAMG:  Solving for p, Initial residual = 0.00315561, Final residual = 2.80078e-05, No Iterations 5
GAMG:  Solving for p, Initial residual = 0.00182181, Final residual = 1.72978e-05, No Iterations 6
GAMG:  Solving for p, Initial residual = 0.00142772, Final residual = 1.40416e-05, No Iterations 4
GAMG:  Solving for p, Initial residual = 0.00129138, Final residual = 1.13591e-05, No Iterations 4
GAMG:  Solving for p, Initial residual = 0.00125344, Final residual = 1.10773e-05, No Iterations 3
GAMG:  Solving for p, Initial residual = 0.00123434, Final residual = 1.12696e-05, No Iterations 2
GAMG:  Solving for p, Initial residual = 0.00123099, Final residual = 1.07986e-05, No Iterations 2
GAMG:  Solving for p, Initial residual = 0.00121083, Final residual = 9.83738e-06, No Iterations 2
time step continuity errors : sum local = 2.31634e-10, global = -7.91679e-13, cumulative = -4.06629e-11
GAMG:  Solving for p, Initial residual = 0.109857, Final residual = 0.00041388, No Iterations 2
GAMG:  Solving for p, Initial residual = 0.0119834, Final residual = 5.54947e-05, No Iterations 4
GAMG:  Solving for p, Initial residual = 0.00401818, Final residual = 2.13311e-05, No Iterations 3
GAMG:  Solving for p, Initial residual = 0.00191504, Final residual = 1.33137e-05, No Iterations 3
GAMG:  Solving for p, Initial residual = 0.0014244, Final residual = 1.04076e-05, No Iterations 3
GAMG:  Solving for p, Initial residual = 0.00130092, Final residual = 1.17177e-05, No Iterations 2
GAMG:  Solving for p, Initial residual = 0.00124772, Final residual = 1.0247e-05, No Iterations 2
GAMG:  Solving for p, Initial residual = 0.00121523, Final residual = 9.17457e-06, No Iterations 2
GAMG:  Solving for p, Initial residual = 0.00119345, Final residual = 8.30995e-06, No Iterations 2
GAMG:  Solving for p, Initial residual = 0.00119785, Final residual = 7.64799e-06, No Iterations 2
GAMG:  Solving for p, Initial residual = 0.00118876, Final residual = 1.18285e-05, No Iterations 1
time step continuity errors : sum local = 2.77912e-10, global = -1.019e-12, cumulative = -4.16819e-11
GAMG:  Solving for p, Initial residual = 0.10931, Final residual = 0.000414986, No Iterations 2
GAMG:  Solving for p, Initial residual = 0.0119496, Final residual = 8.071e-05, No Iterations 4
GAMG:  Solving for p, Initial residual = 0.00399405, Final residual = 3.09223e-05, No Iterations 3
GAMG:  Solving for p, Initial residual = 0.00190221, Final residual = 1.34058e-05, No Iterations 3
GAMG:  Solving for p, Initial residual = 0.00140677, Final residual = 1.06905e-05, No Iterations 3
GAMG:  Solving for p, Initial residual = 0.00128381, Final residual = 8.58354e-06, No Iterations 3
GAMG:  Solving for p, Initial residual = 0.00123703, Final residual = 7.11438e-06, No Iterations 3
GAMG:  Solving for p, Initial residual = 0.00121873, Final residual = 1.03281e-05, No Iterations 2
GAMG:  Solving for p, Initial residual = 0.00121072, Final residual = 8.24537e-06, No Iterations 2
GAMG:  Solving for p, Initial residual = 0.00120603, Final residual = 1.12839e-05, No Iterations 1
GAMG:  Solving for p, Initial residual = 0.00117396, Final residual = 1.16787e-06, No Iterations 89
time step continuity errors : sum local = 2.74139e-11, global = -1.16844e-15, cumulative = -4.16831e-11
GAMG:  Solving for nuTilda, Initial residual = 2.62107e-07, Final residual = 3.8999e-11, No Iterations 3
bounding nuTilda, min: -0.000218976 max: 0.532089 average: 0.0578985
PIMPLE: converged in 7 iterations
ExecutionTime = 5507.26 s  ClockTime = 5520 s

forceCoeffs forceCoeffs1 execute:
    Coefficients
        Cm       : 0	(pressure: 0	viscous: 0)
        Cd       : 0.600398	(pressure: 0.576517	viscous: 0.0238808)
        Cl       : 0.0163532	(pressure: 0.0159827	viscous: 0.00037048)
        Cl(f)    : 0.0081766
        Cl(r)    : 0.0081766

End

Finalising parallel run
/*---------------------------------------------------------------------------*\
| =========                 |                                                 |
| \\      /  F ield         | OpenFOAM: The Open Source CFD Toolbox           |
|  \\    /   O peration     | Version:  v1706                                 |
|   \\  /    A nd           | Web:      www.OpenFOAM.com                      |
|    \\/     M anipulation  |                                                 |
\*---------------------------------------------------------------------------*/
Build  : v1706
Arch   : "LSB;label=32;scalar=64"
Exec   : pimpleFoam -parallel
Date   : Jun 30 2018
Time   : 19:17:52
Host   : "uss-enterprise"
PID    : 17919
Case   : /media/picard/data/jedrzej/OF/pack/56_wing6c_f3d_SA_segGAMG
nProcs : 26
Slaves : 
25
(
"uss-enterprise.17920"
"uss-enterprise.17921"
"uss-enterprise.17922"
"uss-enterprise.17923"
"uss-enterprise.17924"
"uss-enterprise.17925"
"uss-enterprise.17926"
"uss-enterprise.17927"
"uss-enterprise.17928"
"uss-enterprise.17929"
"uss-enterprise.17930"
"uss-enterprise.17931"
"uss-enterprise.17932"
"uss-enterprise.17933"
"uss-enterprise.17934"
"uss-enterprise.17935"
"uss-enterprise.17936"
"uss-enterprise.17937"
"uss-enterprise.17938"
"uss-enterprise.17939"
"uss-enterprise.17940"
"uss-enterprise.17941"
"uss-enterprise.17942"
"uss-enterprise.17943"
"uss-enterprise.17944"
)

Pstream initialized with:
    floatTransfer      : 0
    nProcsSimpleSum    : 0
    commsType          : nonBlocking
    polling iterations : 0
sigFpe : Enabling floating point exception trapping (FOAM_SIGFPE).
fileModificationChecking : Monitoring run-time modified files using timeStampMaster (fileModificationSkew 10)
allowSystemOperations : Allowing user-supplied system call operations

// * * * * * * * * * * * * * * * * * * * * * * * * * * * * * * * * * * * * * //
Create time

Create mesh for time = 4000


PIMPLE: max iterations = 30
    field U	: relTol 0.01, tolerance 1e-05
    field p	: relTol 0.01, tolerance 1e-05

Reading field p

Reading field U

Reading/calculating face flux field phi

AMI: Creating addressing and weights between 44738 source faces and 74816 target faces
AMI: Patch source sum(weights) min/max/average = 0.989893, 1.09974, 1.00004
AMI: Patch target sum(weights) min/max/average = 0.923728, 1.16499, 1.0001
Selecting incompressible transport model Newtonian
Selecting turbulence model type RAS
Selecting RAS turbulence model SpalartAllmaras
Selecting patchDistMethod meshWave
RAS
{
    RASModel        SpalartAllmaras;
    turbulence      on;
    printCoeffs     on;
    sigmaNut        0.66666;
    kappa           0.41;
    Cb1             0.1355;
    Cb2             0.622;
    Cw2             0.3;
    Cw3             2;
    Cv1             7.1;
    Cs              0.3;
}

No MRF models present

No finite volume options present


Starting time loop

forces forceCoeffs1:
    Not including porosity effects
    Fields will be written

forceCoeffs forceCoeffs1:
    Not including porosity effects
    Fields will be written

Courant Number mean: 0.102136 max: 1086.25
--> FOAM Warning : 
    From function virtual Foam::Time& Foam::Time::operator++()
    in file db/Time/Time.C at line 1319
    Increased the timePrecision from 4 to 7 to distinguish between timeNames at time 4000.001
Time = 4000.001

PIMPLE: iteration 1
GAMG:  Solving for Ux, Initial residual = 3.99032e-06, Final residual = 7.37832e-10, No Iterations 1
GAMG:  Solving for Uy, Initial residual = 0.000183942, Final residual = 4.27873e-08, No Iterations 1
/*---------------------------------------------------------------------------*\
| =========                 |                                                 |
| \\      /  F ield         | OpenFOAM: The Open Source CFD Toolbox           |
|  \\    /   O peration     | Version:  v1706                                 |
|   \\  /    A nd           | Web:      www.OpenFOAM.com                      |
|    \\/     M anipulation  |                                                 |
\*---------------------------------------------------------------------------*/
Build  : v1706
Arch   : "LSB;label=32;scalar=64"
Exec   : pimpleFoam -parallel
Date   : Jun 30 2018
Time   : 19:32:18
Host   : "uss-enterprise"
PID    : 3233
Case   : /media/picard/data/jedrzej/OF/pack/56_wing6c_f3d_SA_segGAMG
nProcs : 26
Slaves : 
25
(
"uss-enterprise.3234"
"uss-enterprise.3235"
"uss-enterprise.3236"
"uss-enterprise.3237"
"uss-enterprise.3238"
"uss-enterprise.3239"
"uss-enterprise.3240"
"uss-enterprise.3241"
"uss-enterprise.3242"
"uss-enterprise.3243"
"uss-enterprise.3244"
"uss-enterprise.3245"
"uss-enterprise.3246"
"uss-enterprise.3247"
"uss-enterprise.3248"
"uss-enterprise.3249"
"uss-enterprise.3250"
"uss-enterprise.3251"
"uss-enterprise.3252"
"uss-enterprise.3253"
"uss-enterprise.3254"
"uss-enterprise.3255"
"uss-enterprise.3256"
"uss-enterprise.3257"
"uss-enterprise.3258"
)

Pstream initialized with:
    floatTransfer      : 0
    nProcsSimpleSum    : 0
    commsType          : nonBlocking
    polling iterations : 0
sigFpe : Enabling floating point exception trapping (FOAM_SIGFPE).
fileModificationChecking : Monitoring run-time modified files using timeStampMaster (fileModificationSkew 10)
allowSystemOperations : Allowing user-supplied system call operations

// * * * * * * * * * * * * * * * * * * * * * * * * * * * * * * * * * * * * * //
Create time

Create mesh for time = 4000


PIMPLE: max iterations = 30
    field U	: relTol 0.01, tolerance 1e-05
    field p	: relTol 0.01, tolerance 1e-05

Reading field p

--------------------------------------------------------------------------
MPI_ABORT was invoked on rank 0 in communicator MPI_COMM_WORLD 
with errorcode 1.

NOTE: invoking MPI_ABORT causes Open MPI to kill all MPI processes.
You may or may not see output from other processes, depending on
exactly when Open MPI kills them.
--------------------------------------------------------------------------
