/*---------------------------------------------------------------------------*\
| =========                 |                                                 |
| \\      /  F ield         | OpenFOAM: The Open Source CFD Toolbox           |
|  \\    /   O peration     | Version:  v1706                                 |
|   \\  /    A nd           | Web:      www.OpenFOAM.com                      |
|    \\/     M anipulation  |                                                 |
\*---------------------------------------------------------------------------*/
Build  : v1706
Arch   : "LSB;label=32;scalar=64"
Exec   : simpleFoam -parallel
Date   : Jun 25 2018
Time   : 13:08:13
Host   : "millenium-falcon"
PID    : 14487
Case   : /media/hansolo/data/jedrzej/OF/DO_RAPORTU/58_wing7_f3d_SA_segGAMG
nProcs : 26
Slaves : 
25
(
"millenium-falcon.14488"
"millenium-falcon.14489"
"millenium-falcon.14490"
"millenium-falcon.14491"
"millenium-falcon.14492"
"millenium-falcon.14493"
"millenium-falcon.14494"
"millenium-falcon.14495"
"millenium-falcon.14496"
"millenium-falcon.14497"
"millenium-falcon.14498"
"millenium-falcon.14499"
"millenium-falcon.14500"
"millenium-falcon.14501"
"millenium-falcon.14502"
"millenium-falcon.14503"
"millenium-falcon.14504"
"millenium-falcon.14505"
"millenium-falcon.14506"
"millenium-falcon.14507"
"millenium-falcon.14508"
"millenium-falcon.14509"
"millenium-falcon.14510"
"millenium-falcon.14511"
"millenium-falcon.14512"
)

Pstream initialized with:
    floatTransfer      : 0
    nProcsSimpleSum    : 0
    commsType          : nonBlocking
    polling iterations : 0
sigFpe : Enabling floating point exception trapping (FOAM_SIGFPE).
fileModificationChecking : Monitoring run-time modified files using timeStampMaster (fileModificationSkew 10)
allowSystemOperations : Allowing user-supplied system call operations

// * * * * * * * * * * * * * * * * * * * * * * * * * * * * * * * * * * * * * //
Create time

Create mesh for time = 0


SIMPLE: convergence criteria
    field U	 tolerance 1e-05
    field p	 tolerance 1e-05

Reading field p

Reading field U

Reading/calculating face flux field phi

AMI: Creating addressing and weights between 44738 source faces and 98878 target faces
AMI: Patch source sum(weights) min/max/average = 0.997529, 1.10028, 1.00005
AMI: Patch target sum(weights) min/max/average = 0.946073, 1.10129, 1.00003
Selecting incompressible transport model Newtonian
Selecting turbulence model type RAS
Selecting RAS turbulence model SpalartAllmaras
Selecting patchDistMethod meshWave
RAS
{
    RASModel        SpalartAllmaras;
    turbulence      on;
    printCoeffs     on;
    sigmaNut        0.66666;
    kappa           0.41;
    Cb1             0.1355;
    Cb2             0.622;
    Cw2             0.3;
    Cw3             2;
    Cv1             7.1;
    Cs              0.3;
}

No MRF models present

No finite volume options present


Starting time loop

forces forceCoeffs1:
    Not including porosity effects
    Fields will be written

forceCoeffs forceCoeffs1:
    Not including porosity effects
    Fields will be written

Time = 1

GAMG:  Solving for Ux, Initial residual = 0.0907279, Final residual = 5.70126e-05, No Iterations 2
GAMG:  Solving for Uy, Initial residual = 0.224478, Final residual = 0.000148869, No Iterations 2
GAMG:  Solving for Uz, Initial residual = 0.196418, Final residual = 0.000131354, No Iterations 2
GAMG:  Solving for p, Initial residual = 1, Final residual = 0.0070529, No Iterations 5
GAMG:  Solving for p, Initial residual = 0.0705821, Final residual = 0.000623228, No Iterations 5
GAMG:  Solving for p, Initial residual = 0.014355, Final residual = 0.000137028, No Iterations 15
GAMG:  Solving for p, Initial residual = 0.00432019, Final residual = 4.17671e-05, No Iterations 19
GAMG:  Solving for p, Initial residual = 0.00146276, Final residual = 1.42151e-05, No Iterations 23
GAMG:  Solving for p, Initial residual = 0.000632831, Final residual = 6.30685e-06, No Iterations 21
time step continuity errors : sum local = 4.32056e-06, global = -1.15569e-08, cumulative = -1.15569e-08
GAMG:  Solving for nuTilda, Initial residual = 1, Final residual = 6.65133e-05, No Iterations 13
ExecutionTime = 67.54 s  ClockTime = 68 s

forceCoeffs forceCoeffs1 execute:
    Coefficients
        Cm       : 0	(pressure: 0	viscous: 0)
        Cd       : 3.04912	(pressure: 0.950025	viscous: 2.09909)
        Cl       : -0.0490684	(pressure: -0.0490493	viscous: -1.9175e-05)
        Cl(f)    : -0.0245342
        Cl(r)    : -0.0245342

Time = 2

GAMG:  Solving for Ux, Initial residual = 0.0364007, Final residual = 2.1952e-05, No Iterations 2
GAMG:  Solving for Uy, Initial residual = 0.128839, Final residual = 8.24761e-05, No Iterations 2
GAMG:  Solving for Uz, Initial residual = 0.107537, Final residual = 6.93906e-05, No Iterations 2
GAMG:  Solving for p, Initial residual = 0.221522, Final residual = 0.00170844, No Iterations 6
GAMG:  Solving for p, Initial residual = 0.0462766, Final residual = 0.000414662, No Iterations 5
GAMG:  Solving for p, Initial residual = 0.0097018, Final residual = 9.29837e-05, No Iterations 22
GAMG:  Solving for p, Initial residual = 0.00307202, Final residual = 3.06507e-05, No Iterations 29
GAMG:  Solving for p, Initial residual = 0.00115626, Final residual = 1.13198e-05, No Iterations 33
GAMG:  Solving for p, Initial residual = 0.000593511, Final residual = 5.79585e-06, No Iterations 25
time step continuity errors : sum local = 5.47968e-06, global = 4.46912e-09, cumulative = -7.08775e-09
GAMG:  Solving for nuTilda, Initial residual = 0.122302, Final residual = 9.81868e-06, No Iterations 18
ExecutionTime = 134.27 s  ClockTime = 134 s

forceCoeffs forceCoeffs1 execute:
    Coefficients
        Cm       : 0	(pressure: 0	viscous: 0)
        Cd       : 2.80658	(pressure: 1.8622	viscous: 0.944376)
        Cl       : -0.0491115	(pressure: -0.0491029	viscous: -8.61076e-06)
        Cl(f)    : -0.0245558
        Cl(r)    : -0.0245558

Time = 3

GAMG:  Solving for Ux, Initial residual = 0.01743, Final residual = 1.02248e-05, No Iterations 2
GAMG:  Solving for Uy, Initial residual = 0.0717133, Final residual = 4.69791e-05, No Iterations 2
GAMG:  Solving for Uz, Initial residual = 0.0560949, Final residual = 3.59569e-05, No Iterations 2
GAMG:  Solving for p, Initial residual = 0.0951792, Final residual = 0.000862812, No Iterations 8
GAMG:  Solving for p, Initial residual = 0.0258893, Final residual = 0.000255515, No Iterations 10
GAMG:  Solving for p, Initial residual = 0.00583974, Final residual = 5.8013e-05, No Iterations 24
GAMG:  Solving for p, Initial residual = 0.00196445, Final residual = 1.91501e-05, No Iterations 21
GAMG:  Solving for p, Initial residual = 0.000803763, Final residual = 7.82583e-06, No Iterations 18
GAMG:  Solving for p, Initial residual = 0.000451182, Final residual = 4.44219e-06, No Iterations 12
time step continuity errors : sum local = 4.21578e-06, global = 3.80252e-09, cumulative = -3.28523e-09
GAMG:  Solving for nuTilda, Initial residual = 0.0737899, Final residual = 5.87705e-06, No Iterations 15
ExecutionTime = 189.2 s  ClockTime = 189 s

forceCoeffs forceCoeffs1 execute:
    Coefficients
        Cm       : 0	(pressure: 0	viscous: 0)
        Cd       : 2.74459	(pressure: 2.2316	viscous: 0.512992)
        Cl       : -0.0430362	(pressure: -0.0430947	viscous: 5.85433e-05)
        Cl(f)    : -0.0215181
        Cl(r)    : -0.0215181

Time = 4

GAMG:  Solving for Ux, Initial residual = 0.0113635, Final residual = 5.60481e-06, No Iterations 2
GAMG:  Solving for Uy, Initial residual = 0.0498798, Final residual = 3.05734e-05, No Iterations 2
GAMG:  Solving for Uz, Initial residual = 0.0343418, Final residual = 2.1372e-05, No Iterations 2
GAMG:  Solving for p, Initial residual = 0.0734326, Final residual = 0.00069175, No Iterations 7
GAMG:  Solving for p, Initial residual = 0.0163758, Final residual = 0.000159209, No Iterations 17
GAMG:  Solving for p, Initial residual = 0.00379099, Final residual = 3.76738e-05, No Iterations 38
GAMG:  Solving for p, Initial residual = 0.00126491, Final residual = 1.24955e-05, No Iterations 46
GAMG:  Solving for p, Initial residual = 0.000562302, Final residual = 5.56143e-06, No Iterations 41
GAMG:  Solving for p, Initial residual = 0.000342568, Final residual = 3.38937e-06, No Iterations 27
time step continuity errors : sum local = 2.85906e-06, global = 7.97743e-09, cumulative = 4.6922e-09
GAMG:  Solving for nuTilda, Initial residual = 0.0633807, Final residual = 4.34453e-06, No Iterations 13
ExecutionTime = 277.42 s  ClockTime = 278 s

forceCoeffs forceCoeffs1 execute:
    Coefficients
        Cm       : 0	(pressure: 0	viscous: 0)
        Cd       : 2.41295	(pressure: 2.08158	viscous: 0.331372)
        Cl       : -0.0294804	(pressure: -0.0295324	viscous: 5.19963e-05)
        Cl(f)    : -0.0147402
        Cl(r)    : -0.0147402

Time = 5

GAMG:  Solving for Ux, Initial residual = 0.00813408, Final residual = 3.53681e-06, No Iterations 2
GAMG:  Solving for Uy, Initial residual = 0.0379184, Final residual = 2.08435e-05, No Iterations 2
GAMG:  Solving for Uz, Initial residual = 0.0238414, Final residual = 1.37854e-05, No Iterations 2
GAMG:  Solving for p, Initial residual = 0.0725323, Final residual = 0.000632168, No Iterations 6
GAMG:  Solving for p, Initial residual = 0.0207704, Final residual = 0.000195228, No Iterations 13
GAMG:  Solving for p, Initial residual = 0.00481175, Final residual = 4.80072e-05, No Iterations 29
GAMG:  Solving for p, Initial residual = 0.00154381, Final residual = 1.50309e-05, No Iterations 36
GAMG:  Solving for p, Initial residual = 0.000642046, Final residual = 6.37856e-06, No Iterations 32
GAMG:  Solving for p, Initial residual = 0.000365038, Final residual = 3.61453e-06, No Iterations 23
time step continuity errors : sum local = 2.65506e-06, global = 5.98061e-09, cumulative = 1.06728e-08
GAMG:  Solving for nuTilda, Initial residual = 0.0759751, Final residual = 4.6703e-06, No Iterations 12
ExecutionTime = 350.29 s  ClockTime = 351 s

forceCoeffs forceCoeffs1 execute:
    Coefficients
        Cm       : 0	(pressure: 0	viscous: 0)
        Cd       : 1.93871	(pressure: 1.69476	viscous: 0.243943)
        Cl       : 0.00506568	(pressure: 0.0050467	viscous: 1.89811e-05)
        Cl(f)    : 0.00253284
        Cl(r)    : 0.00253284

Time = 6

GAMG:  Solving for Ux, Initial residual = 0.00600715, Final residual = 2.54614e-06, No Iterations 2
GAMG:  Solving for Uy, Initial residual = 0.0288865, Final residual = 1.54183e-05, No Iterations 2
GAMG:  Solving for Uz, Initial residual = 0.0180268, Final residual = 9.79813e-06, No Iterations 2
GAMG:  Solving for p, Initial residual = 0.0735059, Final residual = 0.00059187, No Iterations 5
GAMG:  Solving for p, Initial residual = 0.0218939, Final residual = 0.000201887, No Iterations 10
GAMG:  Solving for p, Initial residual = 0.00512346, Final residual = 5.09357e-05, No Iterations 25
GAMG:  Solving for p, Initial residual = 0.00165143, Final residual = 1.62083e-05, No Iterations 35
GAMG:  Solving for p, Initial residual = 0.000650146, Final residual = 6.44927e-06, No Iterations 40
GAMG:  Solving for p, Initial residual = 0.000356074, Final residual = 3.54875e-06, No Iterations 31
time step continuity errors : sum local = 2.34587e-06, global = 6.17596e-09, cumulative = 1.68488e-08
GAMG:  Solving for nuTilda, Initial residual = 0.0734815, Final residual = 3.60354e-06, No Iterations 12
ExecutionTime = 426.58 s  ClockTime = 427 s

forceCoeffs forceCoeffs1 execute:
    Coefficients
        Cm       : 0	(pressure: 0	viscous: 0)
        Cd       : 1.54853	(pressure: 1.35371	viscous: 0.194823)
        Cl       : 0.0166462	(pressure: 0.0166259	viscous: 2.03533e-05)
        Cl(f)    : 0.00832311
        Cl(r)    : 0.00832311

Time = 7

GAMG:  Solving for Ux, Initial residual = 0.00481858, Final residual = 1.96399e-06, No Iterations 2
GAMG:  Solving for Uy, Initial residual = 0.0243251, Final residual = 1.2299e-05, No Iterations 2
GAMG:  Solving for Uz, Initial residual = 0.0151774, Final residual = 7.64053e-06, No Iterations 2
GAMG:  Solving for p, Initial residual = 0.0733891, Final residual = 0.000658105, No Iterations 4
GAMG:  Solving for p, Initial residual = 0.017096, Final residual = 0.000166305, No Iterations 10
GAMG:  Solving for p, Initial residual = 0.00416474, Final residual = 4.03722e-05, No Iterations 25
GAMG:  Solving for p, Initial residual = 0.00134373, Final residual = 1.34191e-05, No Iterations 27
GAMG:  Solving for p, Initial residual = 0.000540285, Final residual = 5.29029e-06, No Iterations 27
GAMG:  Solving for p, Initial residual = 0.00030476, Final residual = 3.02227e-06, No Iterations 18
time step continuity errors : sum local = 1.89835e-06, global = 2.66059e-09, cumulative = 1.95094e-08
GAMG:  Solving for nuTilda, Initial residual = 0.0890816, Final residual = 4.17963e-06, No Iterations 12
ExecutionTime = 487.42 s  ClockTime = 488 s

forceCoeffs forceCoeffs1 execute:
    Coefficients
        Cm       : 0	(pressure: 0	viscous: 0)
        Cd       : 1.35618	(pressure: 1.19204	viscous: 0.164138)
        Cl       : 0.0206721	(pressure: 0.0206166	viscous: 5.55359e-05)
        Cl(f)    : 0.0103361
        Cl(r)    : 0.0103361

Time = 8

GAMG:  Solving for Ux, Initial residual = 0.00419252, Final residual = 1.55852e-06, No Iterations 2
GAMG:  Solving for Uy, Initial residual = 0.0218664, Final residual = 1.00317e-05, No Iterations 2
GAMG:  Solving for Uz, Initial residual = 0.0135304, Final residual = 6.23068e-06, No Iterations 2
GAMG:  Solving for p, Initial residual = 0.0715025, Final residual = 0.000504356, No Iterations 4
GAMG:  Solving for p, Initial residual = 0.0136351, Final residual = 0.000127889, No Iterations 8
GAMG:  Solving for p, Initial residual = 0.0031564, Final residual = 3.06186e-05, No Iterations 21
GAMG:  Solving for p, Initial residual = 0.00102069, Final residual = 1.0079e-05, No Iterations 22
GAMG:  Solving for p, Initial residual = 0.000443859, Final residual = 4.41822e-06, No Iterations 19
GAMG:  Solving for p, Initial residual = 0.000272212, Final residual = 2.67989e-06, No Iterations 13
time step continuity errors : sum local = 1.65486e-06, global = -6.20551e-10, cumulative = 1.88888e-08
GAMG:  Solving for nuTilda, Initial residual = 0.0790862, Final residual = 4.30294e-06, No Iterations 12
ExecutionTime = 537.7 s  ClockTime = 539 s

forceCoeffs forceCoeffs1 execute:
    Coefficients
        Cm       : 0	(pressure: 0	viscous: 0)
        Cd       : 1.32853	(pressure: 1.18591	viscous: 0.142621)
        Cl       : 0.0122407	(pressure: 0.0121982	viscous: 4.24777e-05)
        Cl(f)    : 0.00612035
        Cl(r)    : 0.00612035

Time = 9

GAMG:  Solving for Ux, Initial residual = 0.00370283, Final residual = 1.26217e-06, No Iterations 2
GAMG:  Solving for Uy, Initial residual = 0.0196025, Final residual = 8.30975e-06, No Iterations 2
GAMG:  Solving for Uz, Initial residual = 0.0122355, Final residual = 5.21756e-06, No Iterations 2
GAMG:  Solving for p, Initial residual = 0.0667945, Final residual = 0.000549513, No Iterations 4
GAMG:  Solving for p, Initial residual = 0.0123796, Final residual = 0.000121669, No Iterations 11
GAMG:  Solving for p, Initial residual = 0.00303401, Final residual = 2.98061e-05, No Iterations 32
GAMG:  Solving for p, Initial residual = 0.00100191, Final residual = 9.90521e-06, No Iterations 43
GAMG:  Solving for p, Initial residual = 0.000450773, Final residual = 4.42576e-06, No Iterations 40
GAMG:  Solving for p, Initial residual = 0.000281872, Final residual = 2.79608e-06, No Iterations 25
time step continuity errors : sum local = 1.71891e-06, global = -5.37701e-09, cumulative = 1.35118e-08
GAMG:  Solving for nuTilda, Initial residual = 0.0980622, Final residual = 8.42877e-06, No Iterations 11
ExecutionTime = 615.87 s  ClockTime = 617 s

forceCoeffs forceCoeffs1 execute:
    Coefficients
        Cm       : 0	(pressure: 0	viscous: 0)
        Cd       : 1.37972	(pressure: 1.25029	viscous: 0.129431)
        Cl       : 0.00288028	(pressure: 0.00289469	viscous: -1.44162e-05)
        Cl(f)    : 0.00144014
        Cl(r)    : 0.00144014

Time = 10

GAMG:  Solving for Ux, Initial residual = 0.0032723, Final residual = 3.11699e-05, No Iterations 1
GAMG:  Solving for Uy, Initial residual = 0.0175628, Final residual = 7.12509e-06, No Iterations 2
GAMG:  Solving for Uz, Initial residual = 0.0111446, Final residual = 4.47813e-06, No Iterations 2
GAMG:  Solving for p, Initial residual = 0.060442, Final residual = 0.000474306, No Iterations 4
GAMG:  Solving for p, Initial residual = 0.011191, Final residual = 0.000104583, No Iterations 10
GAMG:  Solving for p, Initial residual = 0.00280779, Final residual = 2.74955e-05, No Iterations 21
GAMG:  Solving for p, Initial residual = 0.000936626, Final residual = 9.31769e-06, No Iterations 26
GAMG:  Solving for p, Initial residual = 0.000419514, Final residual = 4.14669e-06, No Iterations 24
GAMG:  Solving for p, Initial residual = 0.000263772, Final residual = 2.5808e-06, No Iterations 16
time step continuity errors : sum local = 1.55627e-06, global = -3.86855e-09, cumulative = 9.64325e-09
GAMG:  Solving for nuTilda, Initial residual = 0.0848273, Final residual = 6.50114e-06, No Iterations 11
ExecutionTime = 678.5 s  ClockTime = 680 s

forceCoeffs forceCoeffs1 execute:
    Coefficients
        Cm       : 0	(pressure: 0	viscous: 0)
        Cd       : 1.42966	(pressure: 1.31157	viscous: 0.118085)
        Cl       : 0.000188622	(pressure: 0.000229062	viscous: -4.04393e-05)
        Cl(f)    : 9.43111e-05
        Cl(r)    : 9.43111e-05

Time = 11

GAMG:  Solving for Ux, Initial residual = 0.00294356, Final residual = 2.6783e-05, No Iterations 1
GAMG:  Solving for Uy, Initial residual = 0.0157727, Final residual = 6.16886e-06, No Iterations 2
GAMG:  Solving for Uz, Initial residual = 0.0102534, Final residual = 3.86257e-06, No Iterations 2
GAMG:  Solving for p, Initial residual = 0.0551157, Final residual = 0.000422694, No Iterations 4
GAMG:  Solving for p, Initial residual = 0.00971556, Final residual = 9.08019e-05, No Iterations 11
GAMG:  Solving for p, Initial residual = 0.00247428, Final residual = 2.42295e-05, No Iterations 22
GAMG:  Solving for p, Initial residual = 0.000838908, Final residual = 8.24676e-06, No Iterations 25
GAMG:  Solving for p, Initial residual = 0.000391314, Final residual = 3.8096e-06, No Iterations 21
GAMG:  Solving for p, Initial residual = 0.000255825, Final residual = 2.50115e-06, No Iterations 13
time step continuity errors : sum local = 1.46724e-06, global = -2.92327e-09, cumulative = 6.71998e-09
GAMG:  Solving for nuTilda, Initial residual = 0.102071, Final residual = 5.11142e-06, No Iterations 11
ExecutionTime = 732.33 s  ClockTime = 734 s

forceCoeffs forceCoeffs1 execute:
    Coefficients
        Cm       : 0	(pressure: 0	viscous: 0)
        Cd       : 1.44743	(pressure: 1.33556	viscous: 0.111873)
        Cl       : 0.0010058	(pressure: 0.0010465	viscous: -4.06954e-05)
        Cl(f)    : 0.0005029
        Cl(r)    : 0.0005029

Time = 12

GAMG:  Solving for Ux, Initial residual = 0.002677, Final residual = 2.32166e-05, No Iterations 1
GAMG:  Solving for Uy, Initial residual = 0.0143827, Final residual = 5.39409e-06, No Iterations 2
GAMG:  Solving for Uz, Initial residual = 0.00950508, Final residual = 3.36352e-06, No Iterations 2
GAMG:  Solving for p, Initial residual = 0.0507296, Final residual = 0.000366987, No Iterations 4
GAMG:  Solving for p, Initial residual = 0.00865282, Final residual = 8.56428e-05, No Iterations 10
GAMG:  Solving for p, Initial residual = 0.00212185, Final residual = 2.03939e-05, No Iterations 23
GAMG:  Solving for p, Initial residual = 0.000743853, Final residual = 7.22949e-06, No Iterations 25
GAMG:  Solving for p, Initial residual = 0.000355767, Final residual = 3.4763e-06, No Iterations 22
GAMG:  Solving for p, Initial residual = 0.000239787, Final residual = 2.3838e-06, No Iterations 13
time step continuity errors : sum local = 1.34612e-06, global = -2.98352e-09, cumulative = 3.73647e-09
GAMG:  Solving for nuTilda, Initial residual = 0.0943519, Final residual = 5.70633e-06, No Iterations 11
ExecutionTime = 786.27 s  ClockTime = 788 s

forceCoeffs forceCoeffs1 execute:
    Coefficients
        Cm       : 0	(pressure: 0	viscous: 0)
        Cd       : 1.4271	(pressure: 1.32227	viscous: 0.104832)
        Cl       : 0.0027316	(pressure: 0.00275438	viscous: -2.2779e-05)
        Cl(f)    : 0.0013658
        Cl(r)    : 0.0013658

Time = 13

GAMG:  Solving for Ux, Initial residual = 0.00246725, Final residual = 2.04041e-05, No Iterations 1
GAMG:  Solving for Uy, Initial residual = 0.0132084, Final residual = 4.64332e-06, No Iterations 2
GAMG:  Solving for Uz, Initial residual = 0.00884919, Final residual = 8.54398e-05, No Iterations 1
GAMG:  Solving for p, Initial residual = 0.0469669, Final residual = 0.000323566, No Iterations 4
GAMG:  Solving for p, Initial residual = 0.00797696, Final residual = 7.38284e-05, No Iterations 11
GAMG:  Solving for p, Initial residual = 0.00195544, Final residual = 1.93707e-05, No Iterations 23
GAMG:  Solving for p, Initial residual = 0.000685799, Final residual = 6.62126e-06, No Iterations 25
GAMG:  Solving for p, Initial residual = 0.000339044, Final residual = 3.37689e-06, No Iterations 18
GAMG:  Solving for p, Initial residual = 0.000233674, Final residual = 2.32375e-06, No Iterations 11
time step continuity errors : sum local = 1.26131e-06, global = -6.8098e-10, cumulative = 3.05549e-09
GAMG:  Solving for nuTilda, Initial residual = 0.105862, Final residual = 6.98835e-06, No Iterations 11
ExecutionTime = 837.32 s  ClockTime = 839 s

forceCoeffs forceCoeffs1 execute:
    Coefficients
        Cm       : 0	(pressure: 0	viscous: 0)
        Cd       : 1.38978	(pressure: 1.2882	viscous: 0.101576)
        Cl       : 0.00347607	(pressure: 0.00347812	viscous: -2.04747e-06)
        Cl(f)    : 0.00173804
        Cl(r)    : 0.00173804

Time = 14

GAMG:  Solving for Ux, Initial residual = 0.00228617, Final residual = 1.81146e-05, No Iterations 1
GAMG:  Solving for Uy, Initial residual = 0.0123516, Final residual = 0.000118564, No Iterations 1
GAMG:  Solving for Uz, Initial residual = 0.0083338, Final residual = 7.56479e-05, No Iterations 1
GAMG:  Solving for p, Initial residual = 0.0439104, Final residual = 0.000293122, No Iterations 4
GAMG:  Solving for p, Initial residual = 0.0074106, Final residual = 7.21497e-05, No Iterations 10
GAMG:  Solving for p, Initial residual = 0.00179596, Final residual = 1.76652e-05, No Iterations 23
GAMG:  Solving for p, Initial residual = 0.000638462, Final residual = 6.17843e-06, No Iterations 24
GAMG:  Solving for p, Initial residual = 0.00031866, Final residual = 3.10953e-06, No Iterations 18
GAMG:  Solving for p, Initial residual = 0.000223552, Final residual = 2.20452e-06, No Iterations 10
time step continuity errors : sum local = 1.15304e-06, global = 6.86946e-10, cumulative = 3.74243e-09
GAMG:  Solving for nuTilda, Initial residual = 0.10683, Final residual = 9.65675e-06, No Iterations 11
ExecutionTime = 887.19 s  ClockTime = 888 s

forceCoeffs forceCoeffs1 execute:
    Coefficients
        Cm       : 0	(pressure: 0	viscous: 0)
        Cd       : 1.34856	(pressure: 1.252	viscous: 0.0965556)
        Cl       : 0.00419109	(pressure: 0.00417962	viscous: 1.14739e-05)
        Cl(f)    : 0.00209555
        Cl(r)    : 0.00209555

Time = 15

GAMG:  Solving for Ux, Initial residual = 0.00215271, Final residual = 1.62391e-05, No Iterations 1
GAMG:  Solving for Uy, Initial residual = 0.0116491, Final residual = 0.000105554, No Iterations 1
GAMG:  Solving for Uz, Initial residual = 0.00790988, Final residual = 6.80633e-05, No Iterations 1
GAMG:  Solving for p, Initial residual = 0.0411306, Final residual = 0.000395076, No Iterations 3
GAMG:  Solving for p, Initial residual = 0.00681886, Final residual = 6.77738e-05, No Iterations 10
GAMG:  Solving for p, Initial residual = 0.0016884, Final residual = 1.68746e-05, No Iterations 25
GAMG:  Solving for p, Initial residual = 0.000606596, Final residual = 5.89764e-06, No Iterations 27
GAMG:  Solving for p, Initial residual = 0.000310239, Final residual = 3.08021e-06, No Iterations 19
GAMG:  Solving for p, Initial residual = 0.000220312, Final residual = 2.18412e-06, No Iterations 11
time step continuity errors : sum local = 1.11025e-06, global = 1.50886e-10, cumulative = 3.89332e-09
GAMG:  Solving for nuTilda, Initial residual = 0.107013, Final residual = 6.42548e-06, No Iterations 12
ExecutionTime = 939.59 s  ClockTime = 941 s

forceCoeffs forceCoeffs1 execute:
    Coefficients
        Cm       : 0	(pressure: 0	viscous: 0)
        Cd       : 1.32185	(pressure: 1.22708	viscous: 0.0947697)
        Cl       : 0.00297645	(pressure: 0.00295766	viscous: 1.87972e-05)
        Cl(f)    : 0.00148823
        Cl(r)    : 0.00148823

Time = 16

GAMG:  Solving for Ux, Initial residual = 0.00202903, Final residual = 1.46638e-05, No Iterations 1
GAMG:  Solving for Uy, Initial residual = 0.0111417, Final residual = 9.52611e-05, No Iterations 1
GAMG:  Solving for Uz, Initial residual = 0.00756196, Final residual = 6.19272e-05, No Iterations 1
GAMG:  Solving for p, Initial residual = 0.038641, Final residual = 0.00036504, No Iterations 3
GAMG:  Solving for p, Initial residual = 0.00631855, Final residual = 5.97677e-05, No Iterations 9
GAMG:  Solving for p, Initial residual = 0.00154301, Final residual = 1.52224e-05, No Iterations 21
GAMG:  Solving for p, Initial residual = 0.00056305, Final residual = 5.6106e-06, No Iterations 22
GAMG:  Solving for p, Initial residual = 0.000291461, Final residual = 2.83352e-06, No Iterations 17
GAMG:  Solving for p, Initial residual = 0.000208474, Final residual = 2.05503e-06, No Iterations 9
time step continuity errors : sum local = 1.02338e-06, global = 3.52095e-09, cumulative = 7.41427e-09
GAMG:  Solving for nuTilda, Initial residual = 0.108654, Final residual = 9.14923e-06, No Iterations 12
ExecutionTime = 986.79 s  ClockTime = 988 s

forceCoeffs forceCoeffs1 execute:
    Coefficients
        Cm       : 0	(pressure: 0	viscous: 0)
        Cd       : 1.30396	(pressure: 1.21309	viscous: 0.0908635)
        Cl       : 0.00114356	(pressure: 0.00111956	viscous: 2.40036e-05)
        Cl(f)    : 0.000571781
        Cl(r)    : 0.000571781

Time = 17

GAMG:  Solving for Ux, Initial residual = 0.00194132, Final residual = 1.33635e-05, No Iterations 1
GAMG:  Solving for Uy, Initial residual = 0.0106282, Final residual = 8.62128e-05, No Iterations 1
GAMG:  Solving for Uz, Initial residual = 0.00726448, Final residual = 5.64872e-05, No Iterations 1
GAMG:  Solving for p, Initial residual = 0.0363192, Final residual = 0.000329548, No Iterations 3
GAMG:  Solving for p, Initial residual = 0.0059314, Final residual = 5.76358e-05, No Iterations 7
GAMG:  Solving for p, Initial residual = 0.00145112, Final residual = 1.45033e-05, No Iterations 19
GAMG:  Solving for p, Initial residual = 0.000536658, Final residual = 5.21204e-06, No Iterations 23
GAMG:  Solving for p, Initial residual = 0.000279907, Final residual = 2.70091e-06, No Iterations 17
GAMG:  Solving for p, Initial residual = 0.00020495, Final residual = 1.98844e-06, No Iterations 9
time step continuity errors : sum local = 9.71692e-07, global = 2.41487e-09, cumulative = 9.82915e-09
GAMG:  Solving for nuTilda, Initial residual = 0.113352, Final residual = 7.61271e-06, No Iterations 12
ExecutionTime = 1032.69 s  ClockTime = 1034 s

forceCoeffs forceCoeffs1 execute:
    Coefficients
        Cm       : 0	(pressure: 0	viscous: 0)
        Cd       : 1.29866	(pressure: 1.2087	viscous: 0.0899587)
        Cl       : -3.41766e-06	(pressure: -1.85812e-05	viscous: 1.51636e-05)
        Cl(f)    : -1.70883e-06
        Cl(r)    : -1.70883e-06

Time = 18

GAMG:  Solving for Ux, Initial residual = 0.00185261, Final residual = 1.22505e-05, No Iterations 1
GAMG:  Solving for Uy, Initial residual = 0.0102654, Final residual = 7.9705e-05, No Iterations 1
GAMG:  Solving for Uz, Initial residual = 0.00703736, Final residual = 5.19991e-05, No Iterations 1
GAMG:  Solving for p, Initial residual = 0.0343091, Final residual = 0.000329799, No Iterations 3
GAMG:  Solving for p, Initial residual = 0.00558221, Final residual = 4.87805e-05, No Iterations 7
GAMG:  Solving for p, Initial residual = 0.00137818, Final residual = 1.37643e-05, No Iterations 14
GAMG:  Solving for p, Initial residual = 0.00050509, Final residual = 4.87421e-06, No Iterations 19
GAMG:  Solving for p, Initial residual = 0.000264536, Final residual = 2.55802e-06, No Iterations 14
GAMG:  Solving for p, Initial residual = 0.000194823, Final residual = 1.8549e-06, No Iterations 8
time step continuity errors : sum local = 8.94592e-07, global = 1.65553e-09, cumulative = 1.14847e-08
GAMG:  Solving for nuTilda, Initial residual = 0.101436, Final residual = 9.94791e-06, No Iterations 12
bounding nuTilda, min: -3.72491e-05 max: 0.4886 average: 0.00846822
ExecutionTime = 1073.98 s  ClockTime = 1076 s

forceCoeffs forceCoeffs1 execute:
    Coefficients
        Cm       : 0	(pressure: 0	viscous: 0)
        Cd       : 1.29331	(pressure: 1.20661	viscous: 0.086701)
        Cl       : -0.000808798	(pressure: -0.000813034	viscous: 4.23609e-06)
        Cl(f)    : -0.000404399
        Cl(r)    : -0.000404399

Time = 19

GAMG:  Solving for Ux, Initial residual = 0.00179087, Final residual = 1.13203e-05, No Iterations 1
GAMG:  Solving for Uy, Initial residual = 0.00985256, Final residual = 7.27209e-05, No Iterations 1
GAMG:  Solving for Uz, Initial residual = 0.00683129, Final residual = 4.8043e-05, No Iterations 1
GAMG:  Solving for p, Initial residual = 0.032533, Final residual = 0.000177302, No Iterations 4
GAMG:  Solving for p, Initial residual = 0.00526198, Final residual = 4.52935e-05, No Iterations 6
GAMG:  Solving for p, Initial residual = 0.0012636, Final residual = 1.2349e-05, No Iterations 15
GAMG:  Solving for p, Initial residual = 0.000481738, Final residual = 4.80356e-06, No Iterations 19
GAMG:  Solving for p, Initial residual = 0.000258366, Final residual = 2.48978e-06, No Iterations 16
GAMG:  Solving for p, Initial residual = 0.000190503, Final residual = 1.89035e-06, No Iterations 8
time step continuity errors : sum local = 8.9802e-07, global = 1.48219e-09, cumulative = 1.29669e-08
GAMG:  Solving for nuTilda, Initial residual = 0.12753, Final residual = 9.6745e-06, No Iterations 11
ExecutionTime = 1115.4 s  ClockTime = 1117 s

forceCoeffs forceCoeffs1 execute:
    Coefficients
        Cm       : 0	(pressure: 0	viscous: 0)
        Cd       : 1.29154	(pressure: 1.20527	viscous: 0.0862755)
        Cl       : -0.000959042	(pressure: -0.000950141	viscous: -8.90157e-06)
        Cl(f)    : -0.000479521
        Cl(r)    : -0.000479521

Time = 20

GAMG:  Solving for Ux, Initial residual = 0.00172572, Final residual = 1.04987e-05, No Iterations 1
GAMG:  Solving for Uy, Initial residual = 0.00960562, Final residual = 6.75282e-05, No Iterations 1
GAMG:  Solving for Uz, Initial residual = 0.00668552, Final residual = 4.4659e-05, No Iterations 1
GAMG:  Solving for p, Initial residual = 0.0309212, Final residual = 0.000173835, No Iterations 4
GAMG:  Solving for p, Initial residual = 0.00497302, Final residual = 4.25379e-05, No Iterations 6
GAMG:  Solving for p, Initial residual = 0.00119388, Final residual = 1.19098e-05, No Iterations 13
GAMG:  Solving for p, Initial residual = 0.000453752, Final residual = 4.51454e-06, No Iterations 17
GAMG:  Solving for p, Initial residual = 0.000244738, Final residual = 2.33881e-06, No Iterations 14
GAMG:  Solving for p, Initial residual = 0.000181757, Final residual = 1.79529e-06, No Iterations 7
time step continuity errors : sum local = 8.45552e-07, global = 1.74174e-09, cumulative = 1.47086e-08
GAMG:  Solving for nuTilda, Initial residual = 0.0944053, Final residual = 7.73597e-06, No Iterations 12
bounding nuTilda, min: -2.35816e-05 max: 0.524866 average: 0.00920361
ExecutionTime = 1161.58 s  ClockTime = 1163 s

forceCoeffs forceCoeffs1 execute:
    Coefficients
        Cm       : 0	(pressure: 0	viscous: 0)
        Cd       : 1.28153	(pressure: 1.19816	viscous: 0.083378)
        Cl       : -0.0010371	(pressure: -0.0010309	viscous: -6.20683e-06)
        Cl(f)    : -0.000518552
        Cl(r)    : -0.000518552

Time = 21

GAMG:  Solving for Ux, Initial residual = 0.0016819, Final residual = 9.84478e-06, No Iterations 1
GAMG:  Solving for Uy, Initial residual = 0.00928515, Final residual = 6.22297e-05, No Iterations 1
GAMG:  Solving for Uz, Initial residual = 0.0065224, Final residual = 4.14527e-05, No Iterations 1
GAMG:  Solving for p, Initial residual = 0.0295272, Final residual = 0.000159911, No Iterations 4
GAMG:  Solving for p, Initial residual = 0.00472709, Final residual = 3.98724e-05, No Iterations 6
GAMG:  Solving for p, Initial residual = 0.00114596, Final residual = 1.12359e-05, No Iterations 14
GAMG:  Solving for p, Initial residual = 0.000441783, Final residual = 4.33999e-06, No Iterations 19
GAMG:  Solving for p, Initial residual = 0.000241516, Final residual = 2.37786e-06, No Iterations 15
GAMG:  Solving for p, Initial residual = 0.000182099, Final residual = 1.81986e-06, No Iterations 8
time step continuity errors : sum local = 8.44551e-07, global = 2.11171e-09, cumulative = 1.68203e-08
GAMG:  Solving for nuTilda, Initial residual = 0.142407, Final residual = 1.01836e-05, No Iterations 10
ExecutionTime = 1202.97 s  ClockTime = 1205 s

forceCoeffs forceCoeffs1 execute:
    Coefficients
        Cm       : 0	(pressure: 0	viscous: 0)
        Cd       : 1.2757	(pressure: 1.19248	viscous: 0.0832156)
        Cl       : -0.000844702	(pressure: -0.000836441	viscous: -8.26093e-06)
        Cl(f)    : -0.000422351
        Cl(r)    : -0.000422351

Time = 22

GAMG:  Solving for Ux, Initial residual = 0.00163187, Final residual = 9.19108e-06, No Iterations 1
GAMG:  Solving for Uy, Initial residual = 0.00916246, Final residual = 5.89854e-05, No Iterations 1
GAMG:  Solving for Uz, Initial residual = 0.00642229, Final residual = 3.9017e-05, No Iterations 1
GAMG:  Solving for p, Initial residual = 0.0282025, Final residual = 0.000157352, No Iterations 4
GAMG:  Solving for p, Initial residual = 0.00449062, Final residual = 3.92495e-05, No Iterations 6
GAMG:  Solving for p, Initial residual = 0.00108547, Final residual = 1.02543e-05, No Iterations 15
GAMG:  Solving for p, Initial residual = 0.000417727, Final residual = 4.16231e-06, No Iterations 17
GAMG:  Solving for p, Initial residual = 0.000229009, Final residual = 2.22675e-06, No Iterations 14
GAMG:  Solving for p, Initial residual = 0.000174177, Final residual = 1.72859e-06, No Iterations 7
time step continuity errors : sum local = 7.98661e-07, global = 2.25222e-09, cumulative = 1.90725e-08
GAMG:  Solving for nuTilda, Initial residual = 0.0917711, Final residual = 6.35414e-06, No Iterations 12
bounding nuTilda, min: -1.30249e-06 max: 0.559377 average: 0.00982414
ExecutionTime = 1242.78 s  ClockTime = 1245 s

forceCoeffs forceCoeffs1 execute:
    Coefficients
        Cm       : 0	(pressure: 0	viscous: 0)
        Cd       : 1.26339	(pressure: 1.18285	viscous: 0.0805342)
        Cl       : -0.000718949	(pressure: -0.000715605	viscous: -3.34403e-06)
        Cl(f)    : -0.000359474
        Cl(r)    : -0.000359474

Time = 23

GAMG:  Solving for Ux, Initial residual = 0.0015994, Final residual = 8.61632e-06, No Iterations 1
GAMG:  Solving for Uy, Initial residual = 0.00889024, Final residual = 5.48499e-05, No Iterations 1
GAMG:  Solving for Uz, Initial residual = 0.00628396, Final residual = 3.63186e-05, No Iterations 1
GAMG:  Solving for p, Initial residual = 0.0269543, Final residual = 0.000145982, No Iterations 4
GAMG:  Solving for p, Initial residual = 0.00427556, Final residual = 3.78937e-05, No Iterations 6
GAMG:  Solving for p, Initial residual = 0.00104458, Final residual = 1.01587e-05, No Iterations 16
GAMG:  Solving for p, Initial residual = 0.000413405, Final residual = 4.11918e-06, No Iterations 19
GAMG:  Solving for p, Initial residual = 0.000230377, Final residual = 2.26991e-06, No Iterations 15
GAMG:  Solving for p, Initial residual = 0.000179475, Final residual = 1.7371e-06, No Iterations 8
time step continuity errors : sum local = 7.92117e-07, global = 2.1507e-09, cumulative = 2.12232e-08
GAMG:  Solving for nuTilda, Initial residual = 0.155649, Final residual = 1.19011e-05, No Iterations 10
ExecutionTime = 1283.39 s  ClockTime = 1286 s

forceCoeffs forceCoeffs1 execute:
    Coefficients
        Cm       : 0	(pressure: 0	viscous: 0)
        Cd       : 1.25826	(pressure: 1.1777	viscous: 0.0805581)
        Cl       : -0.000636727	(pressure: -0.000631805	viscous: -4.9222e-06)
        Cl(f)    : -0.000318364
        Cl(r)    : -0.000318364

Time = 24

GAMG:  Solving for Ux, Initial residual = 0.00155656, Final residual = 8.14927e-06, No Iterations 1
GAMG:  Solving for Uy, Initial residual = 0.00883126, Final residual = 5.27478e-05, No Iterations 1
GAMG:  Solving for Uz, Initial residual = 0.00621315, Final residual = 3.44349e-05, No Iterations 1
GAMG:  Solving for p, Initial residual = 0.02588, Final residual = 0.000144409, No Iterations 4
GAMG:  Solving for p, Initial residual = 0.00406251, Final residual = 3.73644e-05, No Iterations 6
GAMG:  Solving for p, Initial residual = 0.000990488, Final residual = 9.84596e-06, No Iterations 16
GAMG:  Solving for p, Initial residual = 0.000388654, Final residual = 3.85847e-06, No Iterations 18
GAMG:  Solving for p, Initial residual = 0.000218225, Final residual = 2.16938e-06, No Iterations 13
GAMG:  Solving for p, Initial residual = 0.000167397, Final residual = 1.59595e-06, No Iterations 8
time step continuity errors : sum local = 7.28003e-07, global = 2.26675e-09, cumulative = 2.349e-08
GAMG:  Solving for nuTilda, Initial residual = 0.0915934, Final residual = 6.62518e-06, No Iterations 12
bounding nuTilda, min: -8.78161e-06 max: 0.590646 average: 0.0103992
ExecutionTime = 1323.97 s  ClockTime = 1326 s

forceCoeffs forceCoeffs1 execute:
    Coefficients
        Cm       : 0	(pressure: 0	viscous: 0)
        Cd       : 1.24782	(pressure: 1.16983	viscous: 0.0779847)
        Cl       : -0.000488381	(pressure: -0.000487551	viscous: -8.30294e-07)
        Cl(f)    : -0.000244191
        Cl(r)    : -0.000244191

Time = 25

GAMG:  Solving for Ux, Initial residual = 0.00153216, Final residual = 7.71417e-06, No Iterations 1
GAMG:  Solving for Uy, Initial residual = 0.00858325, Final residual = 4.91068e-05, No Iterations 1
GAMG:  Solving for Uz, Initial residual = 0.00609317, Final residual = 3.24993e-05, No Iterations 1
GAMG:  Solving for p, Initial residual = 0.0247553, Final residual = 0.000133109, No Iterations 4
GAMG:  Solving for p, Initial residual = 0.0038902, Final residual = 3.42272e-05, No Iterations 6
GAMG:  Solving for p, Initial residual = 0.000956309, Final residual = 9.19258e-06, No Iterations 17
GAMG:  Solving for p, Initial residual = 0.000384074, Final residual = 3.71021e-06, No Iterations 20
GAMG:  Solving for p, Initial residual = 0.000220045, Final residual = 2.17645e-06, No Iterations 14
GAMG:  Solving for p, Initial residual = 0.00017006, Final residual = 1.68147e-06, No Iterations 8
time step continuity errors : sum local = 7.5877e-07, global = 2.45186e-09, cumulative = 2.59419e-08
GAMG:  Solving for nuTilda, Initial residual = 0.16555, Final residual = 1.54939e-05, No Iterations 10
bounding nuTilda, min: -8.5485e-06 max: 0.560173 average: 0.00971966
ExecutionTime = 1365.51 s  ClockTime = 1368 s

forceCoeffs forceCoeffs1 execute:
    Coefficients
        Cm       : 0	(pressure: 0	viscous: 0)
        Cd       : 1.24535	(pressure: 1.16725	viscous: 0.0781034)
        Cl       : -0.0005309	(pressure: -0.00053258	viscous: 1.68064e-06)
        Cl(f)    : -0.00026545
        Cl(r)    : -0.00026545

Time = 26

GAMG:  Solving for Ux, Initial residual = 0.00149582, Final residual = 7.35394e-06, No Iterations 1
GAMG:  Solving for Uy, Initial residual = 0.00856766, Final residual = 4.74408e-05, No Iterations 1
GAMG:  Solving for Uz, Initial residual = 0.00604109, Final residual = 3.12596e-05, No Iterations 1
GAMG:  Solving for p, Initial residual = 0.0239532, Final residual = 0.000133523, No Iterations 4
GAMG:  Solving for p, Initial residual = 0.00372761, Final residual = 3.40431e-05, No Iterations 6
GAMG:  Solving for p, Initial residual = 0.000910436, Final residual = 8.94582e-06, No Iterations 16
GAMG:  Solving for p, Initial residual = 0.000361687, Final residual = 3.57019e-06, No Iterations 17
GAMG:  Solving for p, Initial residual = 0.000205236, Final residual = 2.0453e-06, No Iterations 12
GAMG:  Solving for p, Initial residual = 0.000160058, Final residual = 1.55638e-06, No Iterations 7
time step continuity errors : sum local = 7.05602e-07, global = 2.20508e-09, cumulative = 2.81469e-08
GAMG:  Solving for nuTilda, Initial residual = 0.091086, Final residual = 7.45148e-06, No Iterations 12
bounding nuTilda, min: -1.59332e-05 max: 0.618275 average: 0.0109752
ExecutionTime = 1404.74 s  ClockTime = 1407 s

forceCoeffs forceCoeffs1 execute:
    Coefficients
        Cm       : 0	(pressure: 0	viscous: 0)
        Cd       : 1.23666	(pressure: 1.16101	viscous: 0.0756479)
        Cl       : -0.000708991	(pressure: -0.000712866	viscous: 3.87529e-06)
        Cl(f)    : -0.000354495
        Cl(r)    : -0.000354495

Time = 27

GAMG:  Solving for Ux, Initial residual = 0.00147689, Final residual = 7.02728e-06, No Iterations 1
GAMG:  Solving for Uy, Initial residual = 0.00833114, Final residual = 4.43767e-05, No Iterations 1
GAMG:  Solving for Uz, Initial residual = 0.00592798, Final residual = 2.95549e-05, No Iterations 1
GAMG:  Solving for p, Initial residual = 0.0229291, Final residual = 0.000122489, No Iterations 4
GAMG:  Solving for p, Initial residual = 0.00357834, Final residual = 3.54998e-05, No Iterations 5
GAMG:  Solving for p, Initial residual = 0.000883993, Final residual = 8.53122e-06, No Iterations 17
GAMG:  Solving for p, Initial residual = 0.000365367, Final residual = 3.60721e-06, No Iterations 19
GAMG:  Solving for p, Initial residual = 0.000211742, Final residual = 2.06379e-06, No Iterations 15
GAMG:  Solving for p, Initial residual = 0.000166751, Final residual = 1.61076e-06, No Iterations 8
time step continuity errors : sum local = 7.24053e-07, global = 2.45273e-09, cumulative = 3.05997e-08
GAMG:  Solving for nuTilda, Initial residual = 0.171376, Final residual = 9.46491e-06, No Iterations 11
bounding nuTilda, min: -3.85175e-06 max: 0.578295 average: 0.0101849
ExecutionTime = 1445.69 s  ClockTime = 1448 s

forceCoeffs forceCoeffs1 execute:
    Coefficients
        Cm       : 0	(pressure: 0	viscous: 0)
        Cd       : 1.23449	(pressure: 1.15868	viscous: 0.0758054)
        Cl       : -0.000635529	(pressure: -0.000636422	viscous: 8.9315e-07)
        Cl(f)    : -0.000317765
        Cl(r)    : -0.000317765

Time = 28

GAMG:  Solving for Ux, Initial residual = 0.0014439, Final residual = 6.74461e-06, No Iterations 1
GAMG:  Solving for Uy, Initial residual = 0.00837588, Final residual = 4.34415e-05, No Iterations 1
GAMG:  Solving for Uz, Initial residual = 0.00589231, Final residual = 2.86187e-05, No Iterations 1
GAMG:  Solving for p, Initial residual = 0.0222615, Final residual = 0.000124135, No Iterations 4
GAMG:  Solving for p, Initial residual = 0.00343679, Final residual = 3.08135e-05, No Iterations 6
GAMG:  Solving for p, Initial residual = 0.000848697, Final residual = 8.33231e-06, No Iterations 15
GAMG:  Solving for p, Initial residual = 0.000342362, Final residual = 3.41729e-06, No Iterations 16
GAMG:  Solving for p, Initial residual = 0.000196794, Final residual = 1.94007e-06, No Iterations 12
GAMG:  Solving for p, Initial residual = 0.000154374, Final residual = 1.4622e-06, No Iterations 7
time step continuity errors : sum local = 6.6193e-07, global = 2.02458e-09, cumulative = 3.26242e-08
GAMG:  Solving for nuTilda, Initial residual = 0.0890225, Final residual = 8.25281e-06, No Iterations 12
bounding nuTilda, min: -2.19848e-05 max: 0.641341 average: 0.0115628
ExecutionTime = 1484 s  ClockTime = 1486 s

forceCoeffs forceCoeffs1 execute:
    Coefficients
        Cm       : 0	(pressure: 0	viscous: 0)
        Cd       : 1.22454	(pressure: 1.15107	viscous: 0.0734755)
        Cl       : -0.00017982	(pressure: -0.000182481	viscous: 2.6612e-06)
        Cl(f)    : -8.991e-05
        Cl(r)    : -8.991e-05

Time = 29

GAMG:  Solving for Ux, Initial residual = 0.00142765, Final residual = 6.47709e-06, No Iterations 1
GAMG:  Solving for Uy, Initial residual = 0.00813957, Final residual = 4.0859e-05, No Iterations 1
GAMG:  Solving for Uz, Initial residual = 0.00578287, Final residual = 2.72425e-05, No Iterations 1
GAMG:  Solving for p, Initial residual = 0.0212791, Final residual = 0.0001145, No Iterations 4
GAMG:  Solving for p, Initial residual = 0.00331653, Final residual = 3.24232e-05, No Iterations 5
GAMG:  Solving for p, Initial residual = 0.000826042, Final residual = 7.99151e-06, No Iterations 16
GAMG:  Solving for p, Initial residual = 0.000346187, Final residual = 3.46037e-06, No Iterations 18
GAMG:  Solving for p, Initial residual = 0.000202291, Final residual = 1.96259e-06, No Iterations 15
GAMG:  Solving for p, Initial residual = 0.00015971, Final residual = 1.58409e-06, No Iterations 7
time step continuity errors : sum local = 7.10534e-07, global = 1.47205e-09, cumulative = 3.40963e-08
GAMG:  Solving for nuTilda, Initial residual = 0.171958, Final residual = 1.00227e-05, No Iterations 11
bounding nuTilda, min: -1.26049e-05 max: 0.593761 average: 0.0106186
ExecutionTime = 1523.86 s  ClockTime = 1526 s

forceCoeffs forceCoeffs1 execute:
    Coefficients
        Cm       : 0	(pressure: 0	viscous: 0)
        Cd       : 1.22299	(pressure: 1.14929	viscous: 0.0736935)
        Cl       : -8.49694e-05	(pressure: -8.39784e-05	viscous: -9.91029e-07)
        Cl(f)    : -4.24847e-05
        Cl(r)    : -4.24847e-05

Time = 30

GAMG:  Solving for Ux, Initial residual = 0.00139752, Final residual = 6.24895e-06, No Iterations 1
GAMG:  Solving for Uy, Initial residual = 0.00822892, Final residual = 4.02034e-05, No Iterations 1
GAMG:  Solving for Uz, Initial residual = 0.00575469, Final residual = 2.65596e-05, No Iterations 1
GAMG:  Solving for p, Initial residual = 0.0208305, Final residual = 0.000115568, No Iterations 4
GAMG:  Solving for p, Initial residual = 0.00319928, Final residual = 2.84137e-05, No Iterations 6
GAMG:  Solving for p, Initial residual = 0.000791244, Final residual = 7.47901e-06, No Iterations 15
GAMG:  Solving for p, Initial residual = 0.000322215, Final residual = 3.19364e-06, No Iterations 15
GAMG:  Solving for p, Initial residual = 0.000189747, Final residual = 1.8056e-06, No Iterations 12
GAMG:  Solving for p, Initial residual = 0.000151354, Final residual = 1.44309e-06, No Iterations 6
time step continuity errors : sum local = 6.52837e-07, global = 1.76227e-09, cumulative = 3.58586e-08
GAMG:  Solving for nuTilda, Initial residual = 0.085801, Final residual = 5.85891e-06, No Iterations 13
bounding nuTilda, min: -4.00323e-05 max: 0.661603 average: 0.0121737
ExecutionTime = 1568.94 s  ClockTime = 1571 s

forceCoeffs forceCoeffs1 execute:
    Coefficients
        Cm       : 0	(pressure: 0	viscous: 0)
        Cd       : 1.21323	(pressure: 1.14174	viscous: 0.0714829)
        Cl       : -0.000249679	(pressure: -0.000249825	viscous: 1.46111e-07)
        Cl(f)    : -0.000124839
        Cl(r)    : -0.000124839

Time = 31

GAMG:  Solving for Ux, Initial residual = 0.00138359, Final residual = 6.02745e-06, No Iterations 1
GAMG:  Solving for Uy, Initial residual = 0.00798902, Final residual = 3.78565e-05, No Iterations 1
GAMG:  Solving for Uz, Initial residual = 0.0056479, Final residual = 2.52243e-05, No Iterations 1
GAMG:  Solving for p, Initial residual = 0.0199548, Final residual = 0.000109817, No Iterations 4
GAMG:  Solving for p, Initial residual = 0.00309301, Final residual = 2.64953e-05, No Iterations 6
GAMG:  Solving for p, Initial residual = 0.000769746, Final residual = 7.33805e-06, No Iterations 16
GAMG:  Solving for p, Initial residual = 0.000319413, Final residual = 3.19309e-06, No Iterations 18
GAMG:  Solving for p, Initial residual = 0.000192172, Final residual = 1.87751e-06, No Iterations 14
GAMG:  Solving for p, Initial residual = 0.000152968, Final residual = 1.51337e-06, No Iterations 7
time step continuity errors : sum local = 6.78174e-07, global = 9.586e-10, cumulative = 3.68172e-08
GAMG:  Solving for nuTilda, Initial residual = 0.170326, Final residual = 1.01562e-05, No Iterations 11
bounding nuTilda, min: -4.75474e-06 max: 0.6066 average: 0.0110345
ExecutionTime = 1609.17 s  ClockTime = 1612 s

forceCoeffs forceCoeffs1 execute:
    Coefficients
        Cm       : 0	(pressure: 0	viscous: 0)
        Cd       : 1.2125	(pressure: 1.14074	viscous: 0.0717566)
        Cl       : -0.000198041	(pressure: -0.000196034	viscous: -2.00783e-06)
        Cl(f)    : -9.90207e-05
        Cl(r)    : -9.90207e-05

Time = 32

GAMG:  Solving for Ux, Initial residual = 0.00135583, Final residual = 5.85156e-06, No Iterations 1
GAMG:  Solving for Uy, Initial residual = 0.00811688, Final residual = 3.74404e-05, No Iterations 1
GAMG:  Solving for Uz, Initial residual = 0.00563919, Final residual = 2.4647e-05, No Iterations 1
GAMG:  Solving for p, Initial residual = 0.0196179, Final residual = 0.000111311, No Iterations 4
GAMG:  Solving for p, Initial residual = 0.00299428, Final residual = 2.81374e-05, No Iterations 6
GAMG:  Solving for p, Initial residual = 0.000743089, Final residual = 7.28873e-06, No Iterations 16
GAMG:  Solving for p, Initial residual = 0.000307685, Final residual = 3.04336e-06, No Iterations 16
GAMG:  Solving for p, Initial residual = 0.000182983, Final residual = 1.75085e-06, No Iterations 12
GAMG:  Solving for p, Initial residual = 0.000146657, Final residual = 1.41375e-06, No Iterations 6
time step continuity errors : sum local = 6.39642e-07, global = 1.47953e-09, cumulative = 3.82967e-08
GAMG:  Solving for nuTilda, Initial residual = 0.0821629, Final residual = 5.95276e-06, No Iterations 13
bounding nuTilda, min: -4.82203e-05 max: 0.677254 average: 0.012816
ExecutionTime = 1648 s  ClockTime = 1650 s

forceCoeffs forceCoeffs1 execute:
    Coefficients
        Cm       : 0	(pressure: 0	viscous: 0)
        Cd       : 1.20231	(pressure: 1.13267	viscous: 0.0696349)
        Cl       : -0.000204153	(pressure: -0.000205007	viscous: 8.54608e-07)
        Cl(f)    : -0.000102076
        Cl(r)    : -0.000102076

Time = 33

GAMG:  Solving for Ux, Initial residual = 0.00134214, Final residual = 5.65939e-06, No Iterations 1
GAMG:  Solving for Uy, Initial residual = 0.00786537, Final residual = 3.51655e-05, No Iterations 1
GAMG:  Solving for Uz, Initial residual = 0.00553721, Final residual = 2.3529e-05, No Iterations 1
GAMG:  Solving for p, Initial residual = 0.0188134, Final residual = 0.00010708, No Iterations 4
GAMG:  Solving for p, Initial residual = 0.00289713, Final residual = 2.6766e-05, No Iterations 6
GAMG:  Solving for p, Initial residual = 0.000728771, Final residual = 6.93718e-06, No Iterations 18
GAMG:  Solving for p, Initial residual = 0.000308791, Final residual = 3.08006e-06, No Iterations 18
GAMG:  Solving for p, Initial residual = 0.000188749, Final residual = 1.81538e-06, No Iterations 14
GAMG:  Solving for p, Initial residual = 0.000153717, Final residual = 1.46208e-06, No Iterations 7
time step continuity errors : sum local = 6.54964e-07, global = 8.86018e-10, cumulative = 3.91827e-08
GAMG:  Solving for nuTilda, Initial residual = 0.167514, Final residual = 1.00377e-05, No Iterations 11
bounding nuTilda, min: -1.62405e-05 max: 0.61772 average: 0.0114428
ExecutionTime = 1688.56 s  ClockTime = 1691 s

forceCoeffs forceCoeffs1 execute:
    Coefficients
        Cm       : 0	(pressure: 0	viscous: 0)
        Cd       : 1.20238	(pressure: 1.13243	viscous: 0.0699497)
        Cl       : -0.000196753	(pressure: -0.000194866	viscous: -1.88747e-06)
        Cl(f)    : -9.83767e-05
        Cl(r)    : -9.83767e-05

Time = 34

GAMG:  Solving for Ux, Initial residual = 0.00131486, Final residual = 5.51568e-06, No Iterations 1
GAMG:  Solving for Uy, Initial residual = 0.00800999, Final residual = 3.49017e-05, No Iterations 1
GAMG:  Solving for Uz, Initial residual = 0.00554496, Final residual = 2.31762e-05, No Iterations 1
GAMG:  Solving for p, Initial residual = 0.0185824, Final residual = 0.000108112, No Iterations 4
GAMG:  Solving for p, Initial residual = 0.00281328, Final residual = 2.4546e-05, No Iterations 7
GAMG:  Solving for p, Initial residual = 0.000705049, Final residual = 6.65401e-06, No Iterations 17
GAMG:  Solving for p, Initial residual = 0.000295133, Final residual = 2.85692e-06, No Iterations 16
GAMG:  Solving for p, Initial residual = 0.000178122, Final residual = 1.7266e-06, No Iterations 11
GAMG:  Solving for p, Initial residual = 0.000144929, Final residual = 1.38649e-06, No Iterations 6
time step continuity errors : sum local = 6.27681e-07, global = 1.4098e-09, cumulative = 4.05925e-08
GAMG:  Solving for nuTilda, Initial residual = 0.078941, Final residual = 6.05688e-06, No Iterations 13
bounding nuTilda, min: -4.63978e-05 max: 0.688391 average: 0.0134902
ExecutionTime = 1727.77 s  ClockTime = 1730 s

forceCoeffs forceCoeffs1 execute:
    Coefficients
        Cm       : 0	(pressure: 0	viscous: 0)
        Cd       : 1.19206	(pressure: 1.12414	viscous: 0.0679193)
        Cl       : -0.000172202	(pressure: -0.000173028	viscous: 8.26677e-07)
        Cl(f)    : -8.61009e-05
        Cl(r)    : -8.61009e-05

Time = 35

GAMG:  Solving for Ux, Initial residual = 0.00130243, Final residual = 5.32657e-06, No Iterations 1
GAMG:  Solving for Uy, Initial residual = 0.00773712, Final residual = 3.27285e-05, No Iterations 1
GAMG:  Solving for Uz, Initial residual = 0.00543604, Final residual = 2.20774e-05, No Iterations 1
GAMG:  Solving for p, Initial residual = 0.0178592, Final residual = 0.000105562, No Iterations 4
GAMG:  Solving for p, Initial residual = 0.00274226, Final residual = 2.7176e-05, No Iterations 6
GAMG:  Solving for p, Initial residual = 0.000696067, Final residual = 6.93201e-06, No Iterations 18
GAMG:  Solving for p, Initial residual = 0.000300552, Final residual = 2.99143e-06, No Iterations 18
GAMG:  Solving for p, Initial residual = 0.00018529, Final residual = 1.78435e-06, No Iterations 13
GAMG:  Solving for p, Initial residual = 0.000154438, Final residual = 1.49594e-06, No Iterations 6
time step continuity errors : sum local = 6.70083e-07, global = 8.39748e-10, cumulative = 4.14323e-08
GAMG:  Solving for nuTilda, Initial residual = 0.16439, Final residual = 9.7687e-06, No Iterations 11
bounding nuTilda, min: -1.82821e-06 max: 0.62711 average: 0.0118267
ExecutionTime = 1767.79 s  ClockTime = 1770 s

forceCoeffs forceCoeffs1 execute:
    Coefficients
        Cm       : 0	(pressure: 0	viscous: 0)
        Cd       : 1.19312	(pressure: 1.12488	viscous: 0.0682422)
        Cl       : -0.000278999	(pressure: -0.000276824	viscous: -2.1742e-06)
        Cl(f)    : -0.000139499
        Cl(r)    : -0.000139499

Time = 36

GAMG:  Solving for Ux, Initial residual = 0.00127817, Final residual = 5.19676e-06, No Iterations 1
GAMG:  Solving for Uy, Initial residual = 0.00790944, Final residual = 3.28405e-05, No Iterations 1
GAMG:  Solving for Uz, Initial residual = 0.00546026, Final residual = 2.18076e-05, No Iterations 1
GAMG:  Solving for p, Initial residual = 0.0177305, Final residual = 0.000105359, No Iterations 4
GAMG:  Solving for p, Initial residual = 0.00267183, Final residual = 2.32827e-05, No Iterations 7
GAMG:  Solving for p, Initial residual = 0.0006729, Final residual = 6.38643e-06, No Iterations 16
GAMG:  Solving for p, Initial residual = 0.000285913, Final residual = 2.80504e-06, No Iterations 15
GAMG:  Solving for p, Initial residual = 0.000177896, Final residual = 1.7473e-06, No Iterations 10
GAMG:  Solving for p, Initial residual = 0.000147297, Final residual = 1.379e-06, No Iterations 6
time step continuity errors : sum local = 6.24665e-07, global = 1.4864e-09, cumulative = 4.29187e-08
GAMG:  Solving for nuTilda, Initial residual = 0.0760576, Final residual = 6.07176e-06, No Iterations 13
bounding nuTilda, min: -3.99294e-05 max: 0.696009 average: 0.0142162
ExecutionTime = 1805.76 s  ClockTime = 1808 s

forceCoeffs forceCoeffs1 execute:
    Coefficients
        Cm       : 0	(pressure: 0	viscous: 0)
        Cd       : 1.18283	(pressure: 1.1165	viscous: 0.0663291)
        Cl       : -3.06103e-05	(pressure: -3.08773e-05	viscous: 2.67053e-07)
        Cl(f)    : -1.53051e-05
        Cl(r)    : -1.53051e-05

Time = 37

GAMG:  Solving for Ux, Initial residual = 0.00126652, Final residual = 5.02428e-06, No Iterations 1
GAMG:  Solving for Uy, Initial residual = 0.0076068, Final residual = 3.07557e-05, No Iterations 1
GAMG:  Solving for Uz, Initial residual = 0.00535009, Final residual = 2.08462e-05, No Iterations 1
GAMG:  Solving for p, Initial residual = 0.0170596, Final residual = 0.000103572, No Iterations 4
GAMG:  Solving for p, Initial residual = 0.00261385, Final residual = 2.58021e-05, No Iterations 6
GAMG:  Solving for p, Initial residual = 0.000667868, Final residual = 6.33367e-06, No Iterations 18
GAMG:  Solving for p, Initial residual = 0.000291409, Final residual = 2.80195e-06, No Iterations 17
GAMG:  Solving for p, Initial residual = 0.000182892, Final residual = 1.80124e-06, No Iterations 11
GAMG:  Solving for p, Initial residual = 0.000154038, Final residual = 1.49157e-06, No Iterations 6
time step continuity errors : sum local = 6.67893e-07, global = 1.39424e-09, cumulative = 4.43129e-08
GAMG:  Solving for nuTilda, Initial residual = 0.162363, Final residual = 9.20582e-06, No Iterations 11
bounding nuTilda, min: -1.04061e-05 max: 0.634456 average: 0.0121831
ExecutionTime = 1844.7 s  ClockTime = 1847 s

forceCoeffs forceCoeffs1 execute:
    Coefficients
        Cm       : 0	(pressure: 0	viscous: 0)
        Cd       : 1.18535	(pressure: 1.11867	viscous: 0.0666769)
        Cl       : 0.000425494	(pressure: 0.000428563	viscous: -3.06851e-06)
        Cl(f)    : 0.000212747
        Cl(r)    : 0.000212747

Time = 38

GAMG:  Solving for Ux, Initial residual = 0.00124425, Final residual = 4.92311e-06, No Iterations 1
GAMG:  Solving for Uy, Initial residual = 0.0078059, Final residual = 3.11186e-05, No Iterations 1
GAMG:  Solving for Uz, Initial residual = 0.00538612, Final residual = 2.07677e-05, No Iterations 1
GAMG:  Solving for p, Initial residual = 0.017006, Final residual = 0.000100123, No Iterations 4
GAMG:  Solving for p, Initial residual = 0.00254083, Final residual = 2.52183e-05, No Iterations 6
GAMG:  Solving for p, Initial residual = 0.000643043, Final residual = 6.08827e-06, No Iterations 17
GAMG:  Solving for p, Initial residual = 0.000279276, Final residual = 2.66796e-06, No Iterations 15
GAMG:  Solving for p, Initial residual = 0.000174749, Final residual = 1.6783e-06, No Iterations 10
GAMG:  Solving for p, Initial residual = 0.000145351, Final residual = 1.43217e-06, No Iterations 5
time step continuity errors : sum local = 6.49144e-07, global = 1.53048e-09, cumulative = 4.58434e-08
GAMG:  Solving for nuTilda, Initial residual = 0.0740813, Final residual = 5.98657e-06, No Iterations 13
bounding nuTilda, min: -4.43308e-05 max: 0.702209 average: 0.0150504
ExecutionTime = 1882.29 s  ClockTime = 1885 s

forceCoeffs forceCoeffs1 execute:
    Coefficients
        Cm       : 0	(pressure: 0	viscous: 0)
        Cd       : 1.17519	(pressure: 1.1103	viscous: 0.0648992)
        Cl       : 0.00100903	(pressure: 0.0010096	viscous: -5.64471e-07)
        Cl(f)    : 0.000504516
        Cl(r)    : 0.000504516

Time = 39

GAMG:  Solving for Ux, Initial residual = 0.00123204, Final residual = 4.77292e-06, No Iterations 1
GAMG:  Solving for Uy, Initial residual = 0.0074914, Final residual = 2.91716e-05, No Iterations 1
GAMG:  Solving for Uz, Initial residual = 0.00526518, Final residual = 1.98825e-05, No Iterations 1
GAMG:  Solving for p, Initial residual = 0.0163963, Final residual = 9.8554e-05, No Iterations 4
GAMG:  Solving for p, Initial residual = 0.0024785, Final residual = 2.46614e-05, No Iterations 6
GAMG:  Solving for p, Initial residual = 0.000634285, Final residual = 6.11565e-06, No Iterations 18
GAMG:  Solving for p, Initial residual = 0.000277289, Final residual = 2.70745e-06, No Iterations 17
GAMG:  Solving for p, Initial residual = 0.000174003, Final residual = 1.67953e-06, No Iterations 12
GAMG:  Solving for p, Initial residual = 0.000145581, Final residual = 1.40511e-06, No Iterations 6
time step continuity errors : sum local = 6.28721e-07, global = 1.49601e-09, cumulative = 4.73394e-08
GAMG:  Solving for nuTilda, Initial residual = 0.161713, Final residual = 1.53289e-05, No Iterations 10
ExecutionTime = 1921.22 s  ClockTime = 1924 s

forceCoeffs forceCoeffs1 execute:
    Coefficients
        Cm       : 0	(pressure: 0	viscous: 0)
        Cd       : 1.17841	(pressure: 1.11313	viscous: 0.0652816)
        Cl       : 0.00123223	(pressure: 0.00123598	viscous: -3.7497e-06)
        Cl(f)    : 0.000616115
        Cl(r)    : 0.000616115

Time = 40

GAMG:  Solving for Ux, Initial residual = 0.00121142, Final residual = 4.693e-06, No Iterations 1
GAMG:  Solving for Uy, Initial residual = 0.00770689, Final residual = 2.96459e-05, No Iterations 1
GAMG:  Solving for Uz, Initial residual = 0.00530447, Final residual = 1.99894e-05, No Iterations 1
GAMG:  Solving for p, Initial residual = 0.016338, Final residual = 9.47977e-05, No Iterations 4
GAMG:  Solving for p, Initial residual = 0.00240949, Final residual = 2.33427e-05, No Iterations 6
GAMG:  Solving for p, Initial residual = 0.000611076, Final residual = 6.0176e-06, No Iterations 16
GAMG:  Solving for p, Initial residual = 0.00026616, Final residual = 2.63118e-06, No Iterations 15
GAMG:  Solving for p, Initial residual = 0.000167268, Final residual = 1.66845e-06, No Iterations 10
GAMG:  Solving for p, Initial residual = 0.000140255, Final residual = 1.31125e-06, No Iterations 6
time step continuity errors : sum local = 5.94426e-07, global = 1.4032e-09, cumulative = 4.87426e-08
GAMG:  Solving for nuTilda, Initial residual = 0.0736204, Final residual = 5.88167e-06, No Iterations 13
bounding nuTilda, min: -3.67562e-05 max: 0.705654 average: 0.016025
ExecutionTime = 1965.91 s  ClockTime = 1968 s

forceCoeffs forceCoeffs1 execute:
    Coefficients
        Cm       : 0	(pressure: 0	viscous: 0)
        Cd       : 1.16779	(pressure: 1.10417	viscous: 0.0636183)
        Cl       : 0.00158113	(pressure: 0.00158174	viscous: -6.11752e-07)
        Cl(f)    : 0.000790565
        Cl(r)    : 0.000790565

Time = 41

GAMG:  Solving for Ux, Initial residual = 0.00119689, Final residual = 4.56207e-06, No Iterations 1
GAMG:  Solving for Uy, Initial residual = 0.00736673, Final residual = 2.76721e-05, No Iterations 1
GAMG:  Solving for Uz, Initial residual = 0.00517225, Final residual = 1.91125e-05, No Iterations 1
GAMG:  Solving for p, Initial residual = 0.015729, Final residual = 9.28834e-05, No Iterations 4
GAMG:  Solving for p, Initial residual = 0.00235915, Final residual = 2.3083e-05, No Iterations 6
GAMG:  Solving for p, Initial residual = 0.000604118, Final residual = 5.76324e-06, No Iterations 18
GAMG:  Solving for p, Initial residual = 0.000267826, Final residual = 2.62439e-06, No Iterations 16
GAMG:  Solving for p, Initial residual = 0.000172333, Final residual = 1.66175e-06, No Iterations 11
GAMG:  Solving for p, Initial residual = 0.000144658, Final residual = 1.36496e-06, No Iterations 6
time step continuity errors : sum local = 6.0964e-07, global = 1.48152e-09, cumulative = 5.02241e-08
GAMG:  Solving for nuTilda, Initial residual = 0.161746, Final residual = 8.86211e-06, No Iterations 11
bounding nuTilda, min: -5.56288e-06 max: 0.643556 average: 0.0129066
ExecutionTime = 2005.03 s  ClockTime = 2008 s

forceCoeffs forceCoeffs1 execute:
    Coefficients
        Cm       : 0	(pressure: 0	viscous: 0)
        Cd       : 1.17117	(pressure: 1.10711	viscous: 0.0640613)
        Cl       : 0.00161133	(pressure: 0.00161598	viscous: -4.65255e-06)
        Cl(f)    : 0.000805663
        Cl(r)    : 0.000805663

Time = 42

GAMG:  Solving for Ux, Initial residual = 0.00117718, Final residual = 4.49309e-06, No Iterations 1
GAMG:  Solving for Uy, Initial residual = 0.00759665, Final residual = 2.82018e-05, No Iterations 1
GAMG:  Solving for Uz, Initial residual = 0.00522126, Final residual = 1.92812e-05, No Iterations 1
GAMG:  Solving for p, Initial residual = 0.0157052, Final residual = 9.11584e-05, No Iterations 4
GAMG:  Solving for p, Initial residual = 0.00229491, Final residual = 2.28035e-05, No Iterations 6
GAMG:  Solving for p, Initial residual = 0.000585369, Final residual = 5.51915e-06, No Iterations 18
GAMG:  Solving for p, Initial residual = 0.00025775, Final residual = 2.50666e-06, No Iterations 15
GAMG:  Solving for p, Initial residual = 0.000164786, Final residual = 1.60801e-06, No Iterations 10
GAMG:  Solving for p, Initial residual = 0.00013776, Final residual = 1.27976e-06, No Iterations 6
time step continuity errors : sum local = 5.79602e-07, global = 1.39216e-09, cumulative = 5.16163e-08
GAMG:  Solving for nuTilda, Initial residual = 0.0733084, Final residual = 5.81629e-06, No Iterations 13
bounding nuTilda, min: -3.23832e-05 max: 0.705593 average: 0.0169571
ExecutionTime = 2043.69 s  ClockTime = 2046 s

forceCoeffs forceCoeffs1 execute:
    Coefficients
        Cm       : 0	(pressure: 0	viscous: 0)
        Cd       : 1.1598	(pressure: 1.09731	viscous: 0.0624926)
        Cl       : 0.00135366	(pressure: 0.00135574	viscous: -2.08525e-06)
        Cl(f)    : 0.000676828
        Cl(r)    : 0.000676828

Time = 43

GAMG:  Solving for Ux, Initial residual = 0.00116404, Final residual = 4.35792e-06, No Iterations 1
GAMG:  Solving for Uy, Initial residual = 0.00724087, Final residual = 2.63758e-05, No Iterations 1
GAMG:  Solving for Uz, Initial residual = 0.00508259, Final residual = 1.83897e-05, No Iterations 1
GAMG:  Solving for p, Initial residual = 0.0151269, Final residual = 8.89504e-05, No Iterations 4
GAMG:  Solving for p, Initial residual = 0.00224919, Final residual = 1.99541e-05, No Iterations 7
GAMG:  Solving for p, Initial residual = 0.000579947, Final residual = 5.49797e-06, No Iterations 18
GAMG:  Solving for p, Initial residual = 0.000255938, Final residual = 2.50589e-06, No Iterations 16
GAMG:  Solving for p, Initial residual = 0.000164714, Final residual = 1.63279e-06, No Iterations 10
GAMG:  Solving for p, Initial residual = 0.000139917, Final residual = 1.32027e-06, No Iterations 6
time step continuity errors : sum local = 5.88607e-07, global = 1.42502e-09, cumulative = 5.30413e-08
GAMG:  Solving for nuTilda, Initial residual = 0.16017, Final residual = 9.08298e-06, No Iterations 11
ExecutionTime = 2082.15 s  ClockTime = 2085 s

forceCoeffs forceCoeffs1 execute:
    Coefficients
        Cm       : 0	(pressure: 0	viscous: 0)
        Cd       : 1.16181	(pressure: 1.09886	viscous: 0.0629522)
        Cl       : 0.000895679	(pressure: 0.000900922	viscous: -5.24291e-06)
        Cl(f)    : 0.000447839
        Cl(r)    : 0.000447839

Time = 44

GAMG:  Solving for Ux, Initial residual = 0.00114521, Final residual = 4.29353e-06, No Iterations 1
GAMG:  Solving for Uy, Initial residual = 0.00746806, Final residual = 2.7053e-05, No Iterations 1
GAMG:  Solving for Uz, Initial residual = 0.0051352, Final residual = 1.85446e-05, No Iterations 1
GAMG:  Solving for p, Initial residual = 0.0151927, Final residual = 8.54773e-05, No Iterations 4
GAMG:  Solving for p, Initial residual = 0.00218745, Final residual = 2.05746e-05, No Iterations 6
GAMG:  Solving for p, Initial residual = 0.000559861, Final residual = 5.35419e-06, No Iterations 17
GAMG:  Solving for p, Initial residual = 0.000247061, Final residual = 2.45784e-06, No Iterations 15
GAMG:  Solving for p, Initial residual = 0.000158863, Final residual = 1.57542e-06, No Iterations 10
GAMG:  Solving for p, Initial residual = 0.000133422, Final residual = 1.25474e-06, No Iterations 6
time step continuity errors : sum local = 5.67587e-07, global = 1.36421e-09, cumulative = 5.44055e-08
GAMG:  Solving for nuTilda, Initial residual = 0.072029, Final residual = 5.46013e-06, No Iterations 13
bounding nuTilda, min: -2.88206e-05 max: 0.702108 average: 0.0177635
ExecutionTime = 2120.4 s  ClockTime = 2123 s

forceCoeffs forceCoeffs1 execute:
    Coefficients
        Cm       : 0	(pressure: 0	viscous: 0)
        Cd       : 1.1493	(pressure: 1.08784	viscous: 0.0614613)
        Cl       : 0.000609656	(pressure: 0.000613972	viscous: -4.3153e-06)
        Cl(f)    : 0.000304828
        Cl(r)    : 0.000304828

Time = 45

GAMG:  Solving for Ux, Initial residual = 0.00113211, Final residual = 4.17227e-06, No Iterations 1
GAMG:  Solving for Uy, Initial residual = 0.00709684, Final residual = 2.53006e-05, No Iterations 1
GAMG:  Solving for Uz, Initial residual = 0.00499348, Final residual = 1.77004e-05, No Iterations 1
GAMG:  Solving for p, Initial residual = 0.0145708, Final residual = 8.22079e-05, No Iterations 4
GAMG:  Solving for p, Initial residual = 0.00214756, Final residual = 1.84444e-05, No Iterations 6
GAMG:  Solving for p, Initial residual = 0.000557559, Final residual = 5.32336e-06, No Iterations 15
GAMG:  Solving for p, Initial residual = 0.000247845, Final residual = 2.41389e-06, No Iterations 15
GAMG:  Solving for p, Initial residual = 0.000161581, Final residual = 1.5368e-06, No Iterations 10
GAMG:  Solving for p, Initial residual = 0.000136753, Final residual = 1.31705e-06, No Iterations 5
time step continuity errors : sum local = 5.8604e-07, global = 1.49781e-09, cumulative = 5.59033e-08
GAMG:  Solving for nuTilda, Initial residual = 0.157588, Final residual = 8.73942e-06, No Iterations 11
ExecutionTime = 2156.27 s  ClockTime = 2159 s

forceCoeffs forceCoeffs1 execute:
    Coefficients
        Cm       : 0	(pressure: 0	viscous: 0)
        Cd       : 1.15052	(pressure: 1.0886	viscous: 0.0619178)
        Cl       : 0.000424435	(pressure: 0.000432644	viscous: -8.20939e-06)
        Cl(f)    : 0.000212217
        Cl(r)    : 0.000212217

Time = 46

GAMG:  Solving for Ux, Initial residual = 0.00111473, Final residual = 4.10616e-06, No Iterations 1
GAMG:  Solving for Uy, Initial residual = 0.00732736, Final residual = 2.59638e-05, No Iterations 1
GAMG:  Solving for Uz, Initial residual = 0.00504878, Final residual = 1.786e-05, No Iterations 1
GAMG:  Solving for p, Initial residual = 0.0147305, Final residual = 7.9994e-05, No Iterations 4
GAMG:  Solving for p, Initial residual = 0.00210154, Final residual = 2.02341e-05, No Iterations 5
GAMG:  Solving for p, Initial residual = 0.000540015, Final residual = 5.31271e-06, No Iterations 14
GAMG:  Solving for p, Initial residual = 0.000240288, Final residual = 2.33914e-06, No Iterations 15
GAMG:  Solving for p, Initial residual = 0.000156213, Final residual = 1.49506e-06, No Iterations 10
GAMG:  Solving for p, Initial residual = 0.000132124, Final residual = 1.27798e-06, No Iterations 5
time step continuity errors : sum local = 5.77294e-07, global = 1.61861e-09, cumulative = 5.75219e-08
GAMG:  Solving for nuTilda, Initial residual = 0.0703437, Final residual = 5.0989e-06, No Iterations 13
bounding nuTilda, min: -1.54255e-05 max: 0.696899 average: 0.0185296
ExecutionTime = 2191.82 s  ClockTime = 2195 s

forceCoeffs forceCoeffs1 execute:
    Coefficients
        Cm       : 0	(pressure: 0	viscous: 0)
        Cd       : 1.13798	(pressure: 1.07747	viscous: 0.0605177)
        Cl       : 0.000143251	(pressure: 0.000149295	viscous: -6.04432e-06)
        Cl(f)    : 7.16255e-05
        Cl(r)    : 7.16255e-05

Time = 47

GAMG:  Solving for Ux, Initial residual = 0.0011033, Final residual = 3.99912e-06, No Iterations 1
GAMG:  Solving for Uy, Initial residual = 0.00696116, Final residual = 2.42609e-05, No Iterations 1
GAMG:  Solving for Uz, Initial residual = 0.00491151, Final residual = 1.70189e-05, No Iterations 1
GAMG:  Solving for p, Initial residual = 0.0140491, Final residual = 7.81755e-05, No Iterations 4
GAMG:  Solving for p, Initial residual = 0.00206969, Final residual = 1.98886e-05, No Iterations 5
GAMG:  Solving for p, Initial residual = 0.000538886, Final residual = 5.10363e-06, No Iterations 15
GAMG:  Solving for p, Initial residual = 0.000243224, Final residual = 2.34396e-06, No Iterations 15
GAMG:  Solving for p, Initial residual = 0.000157843, Final residual = 1.50908e-06, No Iterations 10
GAMG:  Solving for p, Initial residual = 0.000134705, Final residual = 1.3015e-06, No Iterations 5
time step continuity errors : sum local = 5.7791e-07, global = 1.55822e-09, cumulative = 5.90801e-08
GAMG:  Solving for nuTilda, Initial residual = 0.154619, Final residual = 8.52774e-06, No Iterations 11
ExecutionTime = 2226.91 s  ClockTime = 2230 s

forceCoeffs forceCoeffs1 execute:
    Coefficients
        Cm       : 0	(pressure: 0	viscous: 0)
        Cd       : 1.13798	(pressure: 1.07699	viscous: 0.0609865)
        Cl       : -8.85378e-05	(pressure: -8.01321e-05	viscous: -8.40562e-06)
        Cl(f)    : -4.42689e-05
        Cl(r)    : -4.42689e-05

Time = 48

GAMG:  Solving for Ux, Initial residual = 0.00108743, Final residual = 3.93821e-06, No Iterations 1
GAMG:  Solving for Uy, Initial residual = 0.00719194, Final residual = 2.50254e-05, No Iterations 1
GAMG:  Solving for Uz, Initial residual = 0.00497243, Final residual = 1.71749e-05, No Iterations 1
GAMG:  Solving for p, Initial residual = 0.0143521, Final residual = 7.82902e-05, No Iterations 4
GAMG:  Solving for p, Initial residual = 0.00204011, Final residual = 2.02398e-05, No Iterations 5
GAMG:  Solving for p, Initial residual = 0.00052382, Final residual = 5.22677e-06, No Iterations 15
GAMG:  Solving for p, Initial residual = 0.000234925, Final residual = 2.30875e-06, No Iterations 16
GAMG:  Solving for p, Initial residual = 0.000153566, Final residual = 1.50205e-06, No Iterations 10
GAMG:  Solving for p, Initial residual = 0.000130558, Final residual = 1.30282e-06, No Iterations 5
time step continuity errors : sum local = 5.87317e-07, global = 1.69407e-09, cumulative = 6.07742e-08
GAMG:  Solving for nuTilda, Initial residual = 0.0686329, Final residual = 4.82472e-06, No Iterations 13
bounding nuTilda, min: -3.2224e-05 max: 0.690327 average: 0.0192691
ExecutionTime = 2263.41 s  ClockTime = 2267 s

forceCoeffs forceCoeffs1 execute:
    Coefficients
        Cm       : 0	(pressure: 0	viscous: 0)
        Cd       : 1.12572	(pressure: 1.06605	viscous: 0.0596748)
        Cl       : -0.000359067	(pressure: -0.000354869	viscous: -4.19753e-06)
        Cl(f)    : -0.000179533
        Cl(r)    : -0.000179533

Time = 49

GAMG:  Solving for Ux, Initial residual = 0.00107813, Final residual = 3.85065e-06, No Iterations 1
GAMG:  Solving for Uy, Initial residual = 0.00682682, Final residual = 2.33863e-05, No Iterations 1
GAMG:  Solving for Uz, Initial residual = 0.00483853, Final residual = 1.64262e-05, No Iterations 1
GAMG:  Solving for p, Initial residual = 0.0136349, Final residual = 7.553e-05, No Iterations 4
GAMG:  Solving for p, Initial residual = 0.00200736, Final residual = 1.9654e-05, No Iterations 5
GAMG:  Solving for p, Initial residual = 0.000525303, Final residual = 5.00529e-06, No Iterations 15
GAMG:  Solving for p, Initial residual = 0.000239219, Final residual = 2.30665e-06, No Iterations 15
GAMG:  Solving for p, Initial residual = 0.000156603, Final residual = 1.55974e-06, No Iterations 9
GAMG:  Solving for p, Initial residual = 0.000134178, Final residual = 1.33607e-06, No Iterations 5
time step continuity errors : sum local = 5.91966e-07, global = 1.52997e-09, cumulative = 6.23042e-08
GAMG:  Solving for nuTilda, Initial residual = 0.151519, Final residual = 8.50317e-06, No Iterations 11
bounding nuTilda, min: -9.15646e-08 max: 0.647386 average: 0.0148347
ExecutionTime = 2298.6 s  ClockTime = 2302 s

forceCoeffs forceCoeffs1 execute:
    Coefficients
        Cm       : 0	(pressure: 0	viscous: 0)
        Cd       : 1.12462	(pressure: 1.06446	viscous: 0.0601601)
        Cl       : -0.000579727	(pressure: -0.000574958	viscous: -4.76912e-06)
        Cl(f)    : -0.000289864
        Cl(r)    : -0.000289864

Time = 50

GAMG:  Solving for Ux, Initial residual = 0.00106271, Final residual = 3.80129e-06, No Iterations 1
GAMG:  Solving for Uy, Initial residual = 0.00705836, Final residual = 2.41347e-05, No Iterations 1
GAMG:  Solving for Uz, Initial residual = 0.00490153, Final residual = 1.66461e-05, No Iterations 1
GAMG:  Solving for p, Initial residual = 0.0140752, Final residual = 7.5418e-05, No Iterations 4
GAMG:  Solving for p, Initial residual = 0.00198871, Final residual = 1.91294e-05, No Iterations 5
GAMG:  Solving for p, Initial residual = 0.000513749, Final residual = 4.92165e-06, No Iterations 14
GAMG:  Solving for p, Initial residual = 0.000230434, Final residual = 2.19707e-06, No Iterations 15
GAMG:  Solving for p, Initial residual = 0.00015122, Final residual = 1.47233e-06, No Iterations 9
GAMG:  Solving for p, Initial residual = 0.00012813, Final residual = 1.25522e-06, No Iterations 5
time step continuity errors : sum local = 5.64689e-07, global = 1.61377e-09, cumulative = 6.39179e-08
GAMG:  Solving for nuTilda, Initial residual = 0.0669626, Final residual = 4.54741e-06, No Iterations 13
bounding nuTilda, min: -3.00163e-05 max: 0.683111 average: 0.0199763
ExecutionTime = 2341.26 s  ClockTime = 2345 s

forceCoeffs forceCoeffs1 execute:
    Coefficients
        Cm       : 0	(pressure: 0	viscous: 0)
        Cd       : 1.1123	(pressure: 1.05339	viscous: 0.0589163)
        Cl       : -0.000694638	(pressure: -0.000691403	viscous: -3.23526e-06)
        Cl(f)    : -0.000347319
        Cl(r)    : -0.000347319

Time = 51

GAMG:  Solving for Ux, Initial residual = 0.0010549, Final residual = 3.72053e-06, No Iterations 1
GAMG:  Solving for Uy, Initial residual = 0.00668703, Final residual = 2.2573e-05, No Iterations 1
GAMG:  Solving for Uz, Initial residual = 0.00476783, Final residual = 1.59427e-05, No Iterations 1
GAMG:  Solving for p, Initial residual = 0.0133067, Final residual = 7.27366e-05, No Iterations 4
GAMG:  Solving for p, Initial residual = 0.00195477, Final residual = 1.86316e-05, No Iterations 5
GAMG:  Solving for p, Initial residual = 0.000512626, Final residual = 5.09173e-06, No Iterations 13
GAMG:  Solving for p, Initial residual = 0.000232763, Final residual = 2.27551e-06, No Iterations 15
GAMG:  Solving for p, Initial residual = 0.000153419, Final residual = 1.45972e-06, No Iterations 10
GAMG:  Solving for p, Initial residual = 0.00012996, Final residual = 1.26233e-06, No Iterations 5
time step continuity errors : sum local = 5.57815e-07, global = 1.49496e-09, cumulative = 6.54129e-08
GAMG:  Solving for nuTilda, Initial residual = 0.14806, Final residual = 8.48813e-06, No Iterations 11
bounding nuTilda, min: -6.28891e-09 max: 0.64384 average: 0.015312
ExecutionTime = 2376.46 s  ClockTime = 2380 s

forceCoeffs forceCoeffs1 execute:
    Coefficients
        Cm       : 0	(pressure: 0	viscous: 0)
        Cd       : 1.1109	(pressure: 1.05149	viscous: 0.0594195)
        Cl       : -0.000617535	(pressure: -0.000613153	viscous: -4.38274e-06)
        Cl(f)    : -0.000308768
        Cl(r)    : -0.000308768

Time = 52

GAMG:  Solving for Ux, Initial residual = 0.00103898, Final residual = 3.66552e-06, No Iterations 1
GAMG:  Solving for Uy, Initial residual = 0.00692093, Final residual = 2.33446e-05, No Iterations 1
GAMG:  Solving for Uz, Initial residual = 0.00482932, Final residual = 1.62003e-05, No Iterations 1
GAMG:  Solving for p, Initial residual = 0.0138554, Final residual = 7.24644e-05, No Iterations 4
GAMG:  Solving for p, Initial residual = 0.00193847, Final residual = 1.80936e-05, No Iterations 5
[...]
GAMG:  Solving for Uy, Initial residual = 0.00172271, Final residual = 8.75104e-06, No Iterations 1
GAMG:  Solving for Uz, Initial residual = 0.00135391, Final residual = 6.41738e-06, No Iterations 1
GAMG:  Solving for p, Initial residual = 0.00491455, Final residual = 4.28171e-05, No Iterations 3
GAMG:  Solving for p, Initial residual = 0.000911249, Final residual = 7.52011e-06, No Iterations 4
GAMG:  Solving for p, Initial residual = 0.000282355, Final residual = 2.52008e-06, No Iterations 6
GAMG:  Solving for p, Initial residual = 0.000156352, Final residual = 1.45468e-06, No Iterations 6
GAMG:  Solving for p, Initial residual = 0.000118666, Final residual = 1.16787e-06, No Iterations 4
GAMG:  Solving for p, Initial residual = 0.000109579, Final residual = 1.08521e-06, No Iterations 3
time step continuity errors : sum local = 4.7163e-07, global = 7.61711e-11, cumulative = 9.97248e-08
GAMG:  Solving for nuTilda, Initial residual = 0.036494, Final residual = 3.33951e-06, No Iterations 16
bounding nuTilda, min: -9.39494e-05 max: 0.482685 average: 0.0569822
ExecutionTime = 69607.5 s  ClockTime = 69751 s

forceCoeffs forceCoeffs1 execute:
    Coefficients
        Cm       : 0	(pressure: 0	viscous: 0)
        Cd       : 0.584149	(pressure: 0.557357	viscous: 0.0267918)
        Cl       : -0.030025	(pressure: -0.0302076	viscous: 0.000182623)
        Cl(f)    : -0.0150125
        Cl(r)    : -0.0150125

Time = 2472

GAMG:  Solving for Ux, Initial residual = 0.000119371, Final residual = 5.54215e-07, No Iterations 1
GAMG:  Solving for Uy, Initial residual = 0.00176134, Final residual = 8.82506e-06, No Iterations 1
GAMG:  Solving for Uz, Initial residual = 0.00136947, Final residual = 6.45745e-06, No Iterations 1
GAMG:  Solving for p, Initial residual = 0.00462267, Final residual = 4.53819e-05, No Iterations 3
GAMG:  Solving for p, Initial residual = 0.000903149, Final residual = 7.83887e-06, No Iterations 4
GAMG:  Solving for p, Initial residual = 0.000282774, Final residual = 2.5391e-06, No Iterations 6
GAMG:  Solving for p, Initial residual = 0.00015671, Final residual = 1.52744e-06, No Iterations 5
GAMG:  Solving for p, Initial residual = 0.000119243, Final residual = 1.14742e-06, No Iterations 4
GAMG:  Solving for p, Initial residual = 0.000110642, Final residual = 1.06336e-06, No Iterations 3
time step continuity errors : sum local = 4.59912e-07, global = -5.46528e-10, cumulative = 9.91782e-08
GAMG:  Solving for nuTilda, Initial residual = 0.0379014, Final residual = 3.75459e-06, No Iterations 16
bounding nuTilda, min: -0.00326561 max: 0.481331 average: 0.0579663
ExecutionTime = 69633.1 s  ClockTime = 69777 s

forceCoeffs forceCoeffs1 execute:
    Coefficients
        Cm       : 0	(pressure: 0	viscous: 0)
        Cd       : 0.584755	(pressure: 0.558059	viscous: 0.0266961)
        Cl       : -0.0281898	(pressure: -0.0283741	viscous: 0.0001843)
        Cl(f)    : -0.0140949
        Cl(r)    : -0.0140949

Time = 2473

GAMG:  Solving for Ux, Initial residual = 0.000117193, Final residual = 5.51995e-07, No Iterations 1
GAMG:  Solving for Uy, Initial residual = 0.00172241, Final residual = 8.75891e-06, No Iterations 1
GAMG:  Solving for Uz, Initial residual = 0.00135624, Final residual = 6.4797e-06, No Iterations 1
GAMG:  Solving for p, Initial residual = 0.00492483, Final residual = 4.48987e-05, No Iterations 3
GAMG:  Solving for p, Initial residual = 0.000914294, Final residual = 8.20704e-06, No Iterations 4
GAMG:  Solving for p, Initial residual = 0.00028657, Final residual = 2.81388e-06, No Iterations 6
GAMG:  Solving for p, Initial residual = 0.00015921, Final residual = 1.54637e-06, No Iterations 6
GAMG:  Solving for p, Initial residual = 0.00012207, Final residual = 1.20238e-06, No Iterations 4
GAMG:  Solving for p, Initial residual = 0.00011242, Final residual = 1.11483e-06, No Iterations 3
time step continuity errors : sum local = 4.84549e-07, global = -3.33144e-10, cumulative = 9.88451e-08
GAMG:  Solving for nuTilda, Initial residual = 0.0368416, Final residual = 3.32456e-06, No Iterations 16
bounding nuTilda, min: -0.000114614 max: 0.482188 average: 0.0569348
ExecutionTime = 69659.1 s  ClockTime = 69803 s

forceCoeffs forceCoeffs1 execute:
    Coefficients
        Cm       : 0	(pressure: 0	viscous: 0)
        Cd       : 0.584238	(pressure: 0.557446	viscous: 0.0267922)
        Cl       : -0.0276988	(pressure: -0.0278727	viscous: 0.00017386)
        Cl(f)    : -0.0138494
        Cl(r)    : -0.0138494

Time = 2474

GAMG:  Solving for Ux, Initial residual = 0.000119375, Final residual = 5.59323e-07, No Iterations 1
GAMG:  Solving for Uy, Initial residual = 0.00176296, Final residual = 8.919e-06, No Iterations 1
GAMG:  Solving for Uz, Initial residual = 0.00137271, Final residual = 6.52142e-06, No Iterations 1
GAMG:  Solving for p, Initial residual = 0.0046319, Final residual = 4.53069e-05, No Iterations 3
GAMG:  Solving for p, Initial residual = 0.000906824, Final residual = 7.91141e-06, No Iterations 4
GAMG:  Solving for p, Initial residual = 0.000286396, Final residual = 2.58465e-06, No Iterations 6
GAMG:  Solving for p, Initial residual = 0.000158965, Final residual = 1.56241e-06, No Iterations 5
GAMG:  Solving for p, Initial residual = 0.000122597, Final residual = 1.1666e-06, No Iterations 4
GAMG:  Solving for p, Initial residual = 0.000113237, Final residual = 1.07673e-06, No Iterations 3
time step continuity errors : sum local = 4.65722e-07, global = -4.89092e-10, cumulative = 9.8356e-08
GAMG:  Solving for nuTilda, Initial residual = 0.0378529, Final residual = 3.71381e-06, No Iterations 16
bounding nuTilda, min: -0.00326648 max: 0.481204 average: 0.0579505
ExecutionTime = 69684.6 s  ClockTime = 69828 s

forceCoeffs forceCoeffs1 execute:
    Coefficients
        Cm       : 0	(pressure: 0	viscous: 0)
        Cd       : 0.584884	(pressure: 0.558193	viscous: 0.0266912)
        Cl       : -0.0278021	(pressure: -0.0279778	viscous: 0.000175745)
        Cl(f)    : -0.013901
        Cl(r)    : -0.013901

Time = 2475

GAMG:  Solving for Ux, Initial residual = 0.000117238, Final residual = 5.52942e-07, No Iterations 1
GAMG:  Solving for Uy, Initial residual = 0.00172386, Final residual = 8.84993e-06, No Iterations 1
GAMG:  Solving for Uz, Initial residual = 0.00136037, Final residual = 6.52214e-06, No Iterations 1
GAMG:  Solving for p, Initial residual = 0.00494073, Final residual = 4.39783e-05, No Iterations 3
GAMG:  Solving for p, Initial residual = 0.000915377, Final residual = 7.62073e-06, No Iterations 4
GAMG:  Solving for p, Initial residual = 0.000286364, Final residual = 2.69575e-06, No Iterations 5
GAMG:  Solving for p, Initial residual = 0.000156696, Final residual = 1.53695e-06, No Iterations 5
GAMG:  Solving for p, Initial residual = 0.000120102, Final residual = 1.15242e-06, No Iterations 4
GAMG:  Solving for p, Initial residual = 0.00011087, Final residual = 1.08722e-06, No Iterations 3
time step continuity errors : sum local = 4.72517e-07, global = -7.41845e-10, cumulative = 9.76141e-08
GAMG:  Solving for nuTilda, Initial residual = 0.0370939, Final residual = 3.29594e-06, No Iterations 16
bounding nuTilda, min: -0.000135196 max: 0.4817 average: 0.0568302
ExecutionTime = 69709.5 s  ClockTime = 69853 s

forceCoeffs forceCoeffs1 execute:
    Coefficients
        Cm       : 0	(pressure: 0	viscous: 0)
        Cd       : 0.584199	(pressure: 0.55742	viscous: 0.0267795)
        Cl       : -0.0273312	(pressure: -0.0274973	viscous: 0.000166069)
        Cl(f)    : -0.0136656
        Cl(r)    : -0.0136656

Time = 2476

GAMG:  Solving for Ux, Initial residual = 0.00011947, Final residual = 5.59814e-07, No Iterations 1
GAMG:  Solving for Uy, Initial residual = 0.00176783, Final residual = 8.99478e-06, No Iterations 1
GAMG:  Solving for Uz, Initial residual = 0.00137655, Final residual = 6.52371e-06, No Iterations 1
GAMG:  Solving for p, Initial residual = 0.00464288, Final residual = 4.52241e-05, No Iterations 3
GAMG:  Solving for p, Initial residual = 0.000908806, Final residual = 7.64803e-06, No Iterations 4
GAMG:  Solving for p, Initial residual = 0.000287836, Final residual = 2.52891e-06, No Iterations 5
GAMG:  Solving for p, Initial residual = 0.000157777, Final residual = 1.46859e-06, No Iterations 5
GAMG:  Solving for p, Initial residual = 0.000121683, Final residual = 1.12683e-06, No Iterations 4
GAMG:  Solving for p, Initial residual = 0.00011323, Final residual = 1.07233e-06, No Iterations 3
time step continuity errors : sum local = 4.63728e-07, global = -3.8429e-10, cumulative = 9.72299e-08
GAMG:  Solving for nuTilda, Initial residual = 0.0376872, Final residual = 3.66882e-06, No Iterations 16
bounding nuTilda, min: -0.00325346 max: 0.481103 average: 0.057935
ExecutionTime = 69734.6 s  ClockTime = 69878 s

forceCoeffs forceCoeffs1 execute:
    Coefficients
        Cm       : 0	(pressure: 0	viscous: 0)
        Cd       : 0.584455	(pressure: 0.557778	viscous: 0.0266769)
        Cl       : -0.0266642	(pressure: -0.0268315	viscous: 0.000167358)
        Cl(f)    : -0.0133321
        Cl(r)    : -0.0133321

Time = 2477

GAMG:  Solving for Ux, Initial residual = 0.000117248, Final residual = 5.56168e-07, No Iterations 1
GAMG:  Solving for Uy, Initial residual = 0.00172765, Final residual = 8.85741e-06, No Iterations 1
GAMG:  Solving for Uz, Initial residual = 0.00136314, Final residual = 6.5235e-06, No Iterations 1
GAMG:  Solving for p, Initial residual = 0.00495707, Final residual = 4.47603e-05, No Iterations 3
GAMG:  Solving for p, Initial residual = 0.000922604, Final residual = 7.72696e-06, No Iterations 4
GAMG:  Solving for p, Initial residual = 0.000290011, Final residual = 2.71469e-06, No Iterations 5
GAMG:  Solving for p, Initial residual = 0.000161722, Final residual = 1.55751e-06, No Iterations 5
GAMG:  Solving for p, Initial residual = 0.00012528, Final residual = 1.1801e-06, No Iterations 4
GAMG:  Solving for p, Initial residual = 0.000115361, Final residual = 1.11794e-06, No Iterations 3
time step continuity errors : sum local = 4.85754e-07, global = -1.70659e-10, cumulative = 9.70592e-08
GAMG:  Solving for nuTilda, Initial residual = 0.0371971, Final residual = 3.25358e-06, No Iterations 16
bounding nuTilda, min: -0.000161554 max: 0.48124 average: 0.0567185
ExecutionTime = 69759.6 s  ClockTime = 69903 s

forceCoeffs forceCoeffs1 execute:
    Coefficients
        Cm       : 0	(pressure: 0	viscous: 0)
        Cd       : 0.583639	(pressure: 0.556871	viscous: 0.0267687)
        Cl       : -0.0264663	(pressure: -0.0266236	viscous: 0.000157346)
        Cl(f)    : -0.0132331
        Cl(r)    : -0.0132331

Time = 2478

GAMG:  Solving for Ux, Initial residual = 0.00011956, Final residual = 5.62758e-07, No Iterations 1
GAMG:  Solving for Uy, Initial residual = 0.00177297, Final residual = 8.98528e-06, No Iterations 1
GAMG:  Solving for Uz, Initial residual = 0.00137925, Final residual = 6.53289e-06, No Iterations 1
GAMG:  Solving for p, Initial residual = 0.00467526, Final residual = 4.52492e-05, No Iterations 3
GAMG:  Solving for p, Initial residual = 0.000917376, Final residual = 7.68447e-06, No Iterations 4
GAMG:  Solving for p, Initial residual = 0.000292181, Final residual = 2.67221e-06, No Iterations 5
GAMG:  Solving for p, Initial residual = 0.000162193, Final residual = 1.57269e-06, No Iterations 5
GAMG:  Solving for p, Initial residual = 0.000126983, Final residual = 1.20268e-06, No Iterations 4
GAMG:  Solving for p, Initial residual = 0.000118184, Final residual = 1.13258e-06, No Iterations 3
time step continuity errors : sum local = 4.89721e-07, global = -6.42767e-10, cumulative = 9.64164e-08
GAMG:  Solving for nuTilda, Initial residual = 0.0375546, Final residual = 3.62414e-06, No Iterations 16
bounding nuTilda, min: -0.0032862 max: 0.481084 average: 0.0578957
ExecutionTime = 69784.6 s  ClockTime = 69928 s

forceCoeffs forceCoeffs1 execute:
    Coefficients
        Cm       : 0	(pressure: 0	viscous: 0)
        Cd       : 0.583893	(pressure: 0.557223	viscous: 0.02667)
        Cl       : -0.0267736	(pressure: -0.0269317	viscous: 0.000158087)
        Cl(f)    : -0.0133868
        Cl(r)    : -0.0133868

Time = 2479

GAMG:  Solving for Ux, Initial residual = 0.000117386, Final residual = 5.56264e-07, No Iterations 1
GAMG:  Solving for Uy, Initial residual = 0.00173166, Final residual = 8.84265e-06, No Iterations 1
GAMG:  Solving for Uz, Initial residual = 0.00136608, Final residual = 6.52085e-06, No Iterations 1
GAMG:  Solving for p, Initial residual = 0.00498006, Final residual = 4.47112e-05, No Iterations 3
GAMG:  Solving for p, Initial residual = 0.000929354, Final residual = 7.81924e-06, No Iterations 4
GAMG:  Solving for p, Initial residual = 0.000291328, Final residual = 2.77021e-06, No Iterations 5
GAMG:  Solving for p, Initial residual = 0.000163351, Final residual = 1.59962e-06, No Iterations 5
GAMG:  Solving for p, Initial residual = 0.000128462, Final residual = 1.21367e-06, No Iterations 4
GAMG:  Solving for p, Initial residual = 0.000120143, Final residual = 1.14377e-06, No Iterations 3
time step continuity errors : sum local = 4.96881e-07, global = -1.59615e-10, cumulative = 9.62568e-08
GAMG:  Solving for nuTilda, Initial residual = 0.037192, Final residual = 3.20574e-06, No Iterations 16
bounding nuTilda, min: -0.000181395 max: 0.480852 average: 0.0566402
ExecutionTime = 69809.4 s  ClockTime = 69953 s

forceCoeffs forceCoeffs1 execute:
    Coefficients
        Cm       : 0	(pressure: 0	viscous: 0)
        Cd       : 0.583205	(pressure: 0.55644	viscous: 0.0267657)
        Cl       : -0.0265042	(pressure: -0.0266548	viscous: 0.000150584)
        Cl(f)    : -0.0132521
        Cl(r)    : -0.0132521

Time = 2480

GAMG:  Solving for Ux, Initial residual = 0.000119727, Final residual = 5.61887e-07, No Iterations 1
GAMG:  Solving for Uy, Initial residual = 0.00177784, Final residual = 8.99343e-06, No Iterations 1
GAMG:  Solving for Uz, Initial residual = 0.00138184, Final residual = 6.5183e-06, No Iterations 1
GAMG:  Solving for p, Initial residual = 0.00469611, Final residual = 4.49769e-05, No Iterations 3
GAMG:  Solving for p, Initial residual = 0.000923038, Final residual = 7.66279e-06, No Iterations 4
GAMG:  Solving for p, Initial residual = 0.000293791, Final residual = 2.63635e-06, No Iterations 5
GAMG:  Solving for p, Initial residual = 0.000163126, Final residual = 1.56906e-06, No Iterations 5
GAMG:  Solving for p, Initial residual = 0.00012788, Final residual = 1.20805e-06, No Iterations 4
GAMG:  Solving for p, Initial residual = 0.000118203, Final residual = 1.14456e-06, No Iterations 3
time step continuity errors : sum local = 4.94859e-07, global = -4.79155e-10, cumulative = 9.57777e-08
GAMG:  Solving for nuTilda, Initial residual = 0.0374305, Final residual = 3.56951e-06, No Iterations 16
bounding nuTilda, min: -0.00330477 max: 0.481124 average: 0.0578279
ExecutionTime = 69841.8 s  ClockTime = 69986 s

forceCoeffs forceCoeffs1 execute:
    Coefficients
        Cm       : 0	(pressure: 0	viscous: 0)
        Cd       : 0.583667	(pressure: 0.556997	viscous: 0.0266704)
        Cl       : -0.0257096	(pressure: -0.0258612	viscous: 0.000151661)
        Cl(f)    : -0.0128548
        Cl(r)    : -0.0128548

Time = 2481

GAMG:  Solving for Ux, Initial residual = 0.00011755, Final residual = 5.58868e-07, No Iterations 1
GAMG:  Solving for Uy, Initial residual = 0.00173555, Final residual = 8.83494e-06, No Iterations 1
GAMG:  Solving for Uz, Initial residual = 0.00136828, Final residual = 6.49678e-06, No Iterations 1
GAMG:  Solving for p, Initial residual = 0.00499116, Final residual = 4.49664e-05, No Iterations 3
GAMG:  Solving for p, Initial residual = 0.000931074, Final residual = 7.79577e-06, No Iterations 4
GAMG:  Solving for p, Initial residual = 0.000293327, Final residual = 2.63164e-06, No Iterations 5
GAMG:  Solving for p, Initial residual = 0.000162459, Final residual = 1.49196e-06, No Iterations 5
GAMG:  Solving for p, Initial residual = 0.000126097, Final residual = 1.13208e-06, No Iterations 4
GAMG:  Solving for p, Initial residual = 0.000117423, Final residual = 1.08904e-06, No Iterations 3
time step continuity errors : sum local = 4.73047e-07, global = -3.93741e-10, cumulative = 9.53839e-08
GAMG:  Solving for nuTilda, Initial residual = 0.037092, Final residual = 3.17306e-06, No Iterations 16
bounding nuTilda, min: -0.000186466 max: 0.480546 average: 0.0565908
ExecutionTime = 69867 s  ClockTime = 70011 s

forceCoeffs forceCoeffs1 execute:
    Coefficients
        Cm       : 0	(pressure: 0	viscous: 0)
        Cd       : 0.583197	(pressure: 0.556434	viscous: 0.0267632)
        Cl       : -0.0258062	(pressure: -0.0259487	viscous: 0.000142559)
        Cl(f)    : -0.0129031
        Cl(r)    : -0.0129031

Time = 2482

GAMG:  Solving for Ux, Initial residual = 0.000119832, Final residual = 5.66979e-07, No Iterations 1
GAMG:  Solving for Uy, Initial residual = 0.00178356, Final residual = 9.00204e-06, No Iterations 1
GAMG:  Solving for Uz, Initial residual = 0.00138504, Final residual = 6.50178e-06, No Iterations 1
GAMG:  Solving for p, Initial residual = 0.00471361, Final residual = 4.52486e-05, No Iterations 3
GAMG:  Solving for p, Initial residual = 0.000925465, Final residual = 7.86875e-06, No Iterations 4
GAMG:  Solving for p, Initial residual = 0.000295303, Final residual = 2.49661e-06, No Iterations 5
GAMG:  Solving for p, Initial residual = 0.000161017, Final residual = 1.51677e-06, No Iterations 5
GAMG:  Solving for p, Initial residual = 0.000124682, Final residual = 1.18391e-06, No Iterations 4
GAMG:  Solving for p, Initial residual = 0.000115797, Final residual = 1.13507e-06, No Iterations 3
time step continuity errors : sum local = 4.9073e-07, global = -5.83226e-10, cumulative = 9.48007e-08
GAMG:  Solving for nuTilda, Initial residual = 0.0373124, Final residual = 3.56709e-06, No Iterations 16
bounding nuTilda, min: -0.00333478 max: 0.480924 average: 0.057737
ExecutionTime = 69892.1 s  ClockTime = 70036 s

forceCoeffs forceCoeffs1 execute:
    Coefficients
        Cm       : 0	(pressure: 0	viscous: 0)
        Cd       : 0.583813	(pressure: 0.557149	viscous: 0.0266645)
        Cl       : -0.0261817	(pressure: -0.0263243	viscous: 0.000142553)
        Cl(f)    : -0.0130909
        Cl(r)    : -0.0130909

Time = 2483

GAMG:  Solving for Ux, Initial residual = 0.000117666, Final residual = 5.58558e-07, No Iterations 1
GAMG:  Solving for Uy, Initial residual = 0.00174031, Final residual = 8.84017e-06, No Iterations 1
GAMG:  Solving for Uz, Initial residual = 0.00137228, Final residual = 6.5153e-06, No Iterations 1
GAMG:  Solving for p, Initial residual = 0.00501103, Final residual = 4.54817e-05, No Iterations 3
GAMG:  Solving for p, Initial residual = 0.000932264, Final residual = 7.85239e-06, No Iterations 4
GAMG:  Solving for p, Initial residual = 0.000293935, Final residual = 2.60947e-06, No Iterations 5
GAMG:  Solving for p, Initial residual = 0.000162821, Final residual = 1.47283e-06, No Iterations 5
GAMG:  Solving for p, Initial residual = 0.000126076, Final residual = 1.10411e-06, No Iterations 4
GAMG:  Solving for p, Initial residual = 0.000118653, Final residual = 1.06467e-06, No Iterations 3
time step continuity errors : sum local = 4.62414e-07, global = -2.93152e-10, cumulative = 9.45075e-08
GAMG:  Solving for nuTilda, Initial residual = 0.0369364, Final residual = 3.17042e-06, No Iterations 16
bounding nuTilda, min: -0.000142096 max: 0.480224 average: 0.0565286
ExecutionTime = 69917.2 s  ClockTime = 70061 s

forceCoeffs forceCoeffs1 execute:
    Coefficients
        Cm       : 0	(pressure: 0	viscous: 0)
        Cd       : 0.583287	(pressure: 0.556533	viscous: 0.0267543)
        Cl       : -0.0263411	(pressure: -0.0264737	viscous: 0.000132616)
        Cl(f)    : -0.0131706
        Cl(r)    : -0.0131706

Time = 2484

GAMG:  Solving for Ux, Initial residual = 0.000119993, Final residual = 5.64288e-07, No Iterations 1
